data/nesta/nesta_case2224_edin.m
%%%%%%%%%%%%%%%%%%%%%%%%%%%%%%%%%%%%%%%%%%%%%%%%%%%%%%%%%%%%%%%%%%%%%%%%%%%
%%%%                                                                  %%%%%
%%%%      NICTA Energy System Test Case Archive (NESTA) - v0.1.5      %%%%%
%%%%              Optimal Power Flow - Typical Operation              %%%%%
%%%%                       30 - October - 2014                        %%%%%
%%%%                                                                  %%%%%
%%%%%%%%%%%%%%%%%%%%%%%%%%%%%%%%%%%%%%%%%%%%%%%%%%%%%%%%%%%%%%%%%%%%%%%%%%%
%
%   UK network data obtained from following publicly available source:
%
%   Reference:
%   [1] GB SQSS Review working group report. [Online]
%       http://www.nationalgrid.com/uk/Electricity/Codes/gbsqsscode/workinggroups/intgeneration/
%
%   Data Stats: 2224 buses, 394 generators, 3207 branches
%
%   Acknowledgement:
%      Thanks to Manolis Belivanis, Strathclyde University for pointing out the
%      source of data and helping out with details.
%
%   W. A. Bukhsh, March 2013
%   send your questions and comments to : wbukhsh@gmail.com
%
function mpc = nesta_case2224_edin
mpc.version = '2';
mpc.baseMVA = 100.0;

%% area data
%	area	refbus
mpc.areas = [
	1	 1;
];

%% bus data
%	bus_i	type	Pd	Qd	Gs	Bs	area	Vm	Va	baseKV	zone	Vmax	Vmin
mpc.bus = [
	1	 1	 0.0	 0.0	 0.0	 0.0	 1	     1.0493	    -1.4690	 275.0	 1	     1.0600	     0.9400;
	2	 2	 0.0	 0.0	 0.0	 0.0	 1	     1.0530	     2.7505	 275.0	 1	     1.0600	     0.9400;
	3	 2	 0.0	 0.0	 0.0	 0.0	 1	     1.0530	     2.7905	 275.0	 1	     1.0600	     0.9400;
	4	 2	 0.0	 0.0	 0.0	 0.0	 1	     1.0530	     2.7451	 275.0	 1	     1.0600	     0.9400;
	5	 1	 0.0	 0.0	 0.0	 0.0	 1	     1.0420	     0.3483	 275.0	 1	     1.0600	     0.9400;
	6	 2	 0.0	 0.0	 0.0	 0.0	 1	     1.0530	    11.9795	 275.0	 1	     1.0600	     0.9400;
	7	 2	 0.0	 0.0	 0.0	 0.0	 1	     1.0530	    11.9991	 275.0	 1	     1.0600	     0.9400;
	8	 1	 0.0	 0.0	 0.0	 0.0	 1	     1.0479	     2.3561	 275.0	 1	     1.0600	     0.9400;
	9	 2	 0.0	 0.0	 0.0	 0.0	 1	     1.0530	    13.7786	 275.0	 1	     1.0600	     0.9400;
	10	 2	 0.0	 0.0	 0.0	 0.0	 1	     1.0530	    13.9344	 275.0	 1	     1.0600	     0.9400;
	11	 2	 0.0	 0.0	 0.0	 0.0	 1	     1.0530	    13.9670	 275.0	 1	     1.0600	     0.9400;
	12	 2	 0.0	 0.0	 0.0	 0.0	 1	     1.0530	    12.4827	 275.0	 1	     1.0600	     0.9400;
	13	 2	 0.0	 0.0	 0.0	 0.0	 1	     1.0530	    15.9216	 275.0	 1	     1.0600	     0.9400;
	14	 1	 7.79	 21.52	 0.0	 0.0	 1	     1.0530	    17.1884	 400.0	 1	     1.0600	     0.9400;
	15	 2	 0.0	 0.0	 0.0	 0.0	 1	     1.0530	    21.5384	 400.0	 1	     1.0600	     0.9400;
	16	 2	 0.0	 0.0	 0.0	 0.0	 1	     1.0530	    21.4533	 400.0	 1	     1.0600	     0.9400;
	17	 2	 0.0	 0.0	 0.0	 0.0	 1	     1.0530	    21.4673	 400.0	 1	     1.0600	     0.9400;
	18	 2	 0.0	 0.0	 0.0	 0.0	 1	     1.0530	    21.4446	 400.0	 1	     1.0600	     0.9400;
	19	 1	 0.0	 0.0	 0.0	 0.0	 1	     1.0481	    16.7492	 400.0	 1	     1.0600	     0.9400;
	20	 2	 0.0	 0.0	 0.0	 0.0	 1	     1.0530	    27.0498	 400.0	 1	     1.0600	     0.9400;
	21	 2	 0.0	 0.0	 0.0	 0.0	 1	     1.0530	    27.0498	 400.0	 1	     1.0600	     0.9400;
	22	 2	 0.0	 0.0	 0.0	 0.0	 1	     1.0530	    21.8639	 400.0	 1	     1.0600	     0.9400;
	23	 1	 0.0	 0.0	 0.0	 0.0	 1	     1.0522	    -2.1979	 400.0	 1	     1.0600	     0.9400;
	24	 2	 0.0	 0.0	 0.0	 0.0	 1	     1.0530	     2.2708	 400.0	 1	     1.0600	     0.9400;
	25	 2	 0.0	 0.0	 0.0	 0.0	 1	     1.0530	     2.1618	 400.0	 1	     1.0600	     0.9400;
	26	 1	 0.0	 0.0	 0.0	 0.0	 1	     1.0530	     0.2692	 400.0	 1	     1.0600	     0.9400;
	27	 2	 0.0	 0.0	 0.0	 0.0	 1	     1.0530	     4.5396	 400.0	 1	     1.0600	     0.9400;
	28	 2	 0.0	 0.0	 0.0	 0.0	 1	     1.0530	     4.6972	 400.0	 1	     1.0600	     0.9400;
	29	 1	 0.0	 0.0	 0.0	 0.0	 1	     1.0492	    22.7018	 400.0	 1	     1.0600	     0.9400;
	30	 2	 0.0	 0.0	 0.0	 0.0	 1	     1.0530	    29.5434	 400.0	 1	     1.0600	     0.9400;
	31	 2	 0.0	 0.0	 0.0	 0.0	 1	     1.0530	    29.5434	 400.0	 1	     1.0600	     0.9400;
	32	 2	 0.0	 0.0	 0.0	 0.0	 1	     1.0530	    29.5434	 400.0	 1	     1.0600	     0.9400;
	33	 2	 0.0	 0.0	 0.0	 0.0	 1	     1.0530	    29.5434	 400.0	 1	     1.0600	     0.9400;
	34	 2	 0.0	 0.0	 0.0	 0.0	 1	     1.0530	    29.5434	 400.0	 1	     1.0600	     0.9400;
	35	 2	 0.0	 0.0	 0.0	 0.0	 1	     1.0102	    22.7018	 400.0	 1	     1.0600	     0.9400;
	36	 1	 0.0	 0.0	 0.0	 0.0	 1	     1.0530	    19.6662	 400.0	 1	     1.0600	     0.9400;
	37	 2	 0.0	 0.0	 0.0	 0.0	 1	     1.0530	    22.6393	 400.0	 1	     1.0600	     0.9400;
	38	 2	 0.0	 0.0	 0.0	 0.0	 1	     1.0530	    22.6239	 400.0	 1	     1.0600	     0.9400;
	39	 2	 0.0	 0.0	 0.0	 0.0	 1	     1.0530	    22.6900	 400.0	 1	     1.0600	     0.9400;
	40	 1	 0.0	 0.0	 0.0	 0.0	 1	     1.0526	    18.9980	 400.0	 1	     1.0600	     0.9400;
	41	 2	 0.0	 0.0	 0.0	 0.0	 1	     1.0530	    21.8870	 400.0	 1	     1.0600	     0.9400;
	42	 2	 0.0	 0.0	 0.0	 0.0	 1	     1.0530	    21.9118	 400.0	 1	     1.0600	     0.9400;
	43	 2	 0.0	 0.0	 0.0	 0.0	 1	     1.0530	    21.8837	 400.0	 1	     1.0600	     0.9400;
	44	 1	 0.0	 0.0	 0.0	 0.0	 1	     1.0506	    -2.2249	 400.0	 1	     1.0600	     0.9400;
	45	 2	 0.0	 0.0	 0.0	 0.0	 1	     1.0530	     1.1939	 400.0	 1	     1.0600	     0.9400;
	46	 2	 0.0	 0.0	 0.0	 0.0	 1	     1.0530	     1.2109	 400.0	 1	     1.0600	     0.9400;
	47	 1	 0.0	 0.0	 0.0	 0.0	 1	     1.0508	    17.7893	 400.0	 1	     1.0600	     0.9400;
	48	 2	 0.0	 0.0	 0.0	 0.0	 1	     1.0530	    21.6306	 400.0	 1	     1.0600	     0.9400;
	49	 2	 0.0	 0.0	 0.0	 0.0	 1	     1.0530	    21.9700	 400.0	 1	     1.0600	     0.9400;
	50	 1	 15.98	 11.47	 0.0	 0.0	 1	     1.0512	    18.7796	 400.0	 1	     1.0600	     0.9400;
	51	 2	 0.0	 0.0	 0.0	 0.0	 1	     1.0530	    22.6605	 400.0	 1	     1.0600	     0.9400;
	52	 2	 0.0	 0.0	 0.0	 0.0	 1	     1.0530	    22.8792	 400.0	 1	     1.0600	     0.9400;
	53	 1	 0.0	 0.0	 0.0	 0.0	 1	     1.0231	   -10.6942	 400.0	 1	     1.0600	     0.9400;
	54	 2	 0.0	 0.0	 0.0	 0.0	 1	     1.0055	   -10.6942	 400.0	 1	     1.0600	     0.9400;
	55	 2	 0.0	 0.0	 0.0	 0.0	 1	     1.0055	   -10.6942	 400.0	 1	     1.0600	     0.9400;
	56	 1	 0.0	 0.0	 0.0	 0.0	 1	     1.0529	    15.6078	 275.0	 1	     1.0600	     0.9400;
	57	 2	 0.0	 0.0	 0.0	 0.0	 1	     1.0530	    19.9553	 275.0	 1	     1.0600	     0.9400;
	58	 1	 0.0	 0.0	 0.0	 0.0	 1	     1.0529	    15.7090	 275.0	 1	     1.0600	     0.9400;
	59	 2	 0.0	 0.0	 0.0	 0.0	 1	     1.0530	    20.1519	 275.0	 1	     1.0600	     0.9400;
	60	 1	 0.0	 0.0	 0.0	 0.0	 1	     1.0439	    13.7887	 275.0	 1	     1.0600	     0.9400;
	61	 2	 0.0	 0.0	 0.0	 0.0	 1	     1.0530	    18.1498	 275.0	 1	     1.0600	     0.9400;
	62	 2	 0.0	 0.0	 0.0	 0.0	 1	     1.0530	    19.9965	 275.0	 1	     1.0600	     0.9400;
	63	 1	 0.0	 0.0	 0.0	 0.0	 1	     1.0476	    21.1867	 275.0	 1	     1.0600	     0.9400;
	64	 2	 0.0	 0.0	 0.0	 0.0	 1	     1.0530	    34.9748	 275.0	 1	     1.0600	     0.9400;
	65	 2	 0.0	 0.0	 0.0	 0.0	 1	     1.0351	    28.2008	 275.0	 1	     1.0600	     0.9400;
	66	 1	 0.0	 0.0	 0.0	 0.0	 1	     1.0530	    16.3628	 275.0	 1	     1.0600	     0.9400;
	67	 2	 0.0	 0.0	 0.0	 0.0	 1	     1.0530	    20.8923	 275.0	 1	     1.0600	     0.9400;
	68	 1	 0.0	 0.0	 0.0	 0.0	 1	     1.0530	    16.3222	 275.0	 1	     1.0600	     0.9400;
	69	 2	 0.0	 0.0	 0.0	 0.0	 1	     1.0530	    20.8527	 275.0	 1	     1.0600	     0.9400;
	70	 1	 0.0	 0.0	 0.0	 0.0	 1	     1.0530	    15.3043	 275.0	 1	     1.0600	     0.9400;
	71	 2	 0.0	 0.0	 0.0	 0.0	 1	     1.0530	    19.8131	 275.0	 1	     1.0600	     0.9400;
	72	 1	 0.0	 0.0	 0.0	 0.0	 1	     1.0530	    15.3142	 275.0	 1	     1.0600	     0.9400;
	73	 2	 0.0	 0.0	 0.0	 0.0	 1	     1.0530	    19.6272	 275.0	 1	     1.0600	     0.9400;
	74	 1	 15.83	 10.93	 0.0	 0.0	 1	     1.0515	     0.8361	 400.0	 1	     1.0600	     0.9400;
	75	 2	 0.0	 0.0	 0.0	 0.0	 1	     1.0017	     0.8361	 400.0	 1	     1.0600	     0.9400;
	76	 2	 0.0	 0.0	 0.0	 0.0	 1	     1.0017	     0.8361	 400.0	 1	     1.0600	     0.9400;
	77	 2	 0.0	 0.0	 0.0	 0.0	 1	     1.0017	     0.8361	 400.0	 1	     1.0600	     0.9400;
	78	 2	 0.0	 0.0	 0.0	 0.0	 1	     1.0017	     0.8361	 400.0	 1	     1.0600	     0.9400;
	79	 1	 0.0	 0.0	 0.0	 0.0	 1	     1.0530	    23.1218	 275.0	 1	     1.0600	     0.9400;
	80	 2	 0.0	 0.0	 0.0	 0.0	 1	     1.0530	    26.4538	 275.0	 1	     1.0600	     0.9400;
	81	 2	 0.0	 0.0	 0.0	 0.0	 1	     1.0530	    26.4620	 275.0	 1	     1.0600	     0.9400;
	82	 1	 0.0	 0.0	 0.0	 0.0	 1	     1.0530	    18.0486	 400.0	 1	     1.0600	     0.9400;
	83	 2	 0.0	 0.0	 0.0	 0.0	 1	     1.0530	    21.2460	 400.0	 1	     1.0600	     0.9400;
	84	 2	 0.0	 0.0	 0.0	 0.0	 1	     1.0530	    21.2899	 400.0	 1	     1.0600	     0.9400;
	85	 2	 0.0	 0.0	 0.0	 0.0	 1	     1.0530	    21.1733	 400.0	 1	     1.0600	     0.9400;
	86	 2	 0.0	 0.0	 0.0	 0.0	 1	     1.0530	    21.1327	 400.0	 1	     1.0600	     0.9400;
	87	 1	 0.0	 0.0	 0.0	 0.0	 1	     1.0525	    -8.7622	 400.0	 1	     1.0600	     0.9400;
	88	 2	 0.0	 0.0	 0.0	 0.0	 1	     1.0530	    -5.1993	 400.0	 1	     1.0600	     0.9400;
	89	 2	 0.0	 0.0	 0.0	 0.0	 1	     1.0530	    -5.3311	 400.0	 1	     1.0600	     0.9400;
	90	 1	 0.0	 0.0	 0.0	 2.02	 1	     1.0478	     6.3877	 400.0	 1	     1.0600	     0.9400;
	91	 2	 0.0	 0.0	 0.0	 0.0	 1	     1.0530	    10.8167	 400.0	 1	     1.0600	     0.9400;
	92	 2	 0.0	 0.0	 0.0	 0.0	 1	     1.0530	    10.9454	 400.0	 1	     1.0600	     0.9400;
	93	 1	 0.0	 0.0	 0.0	 0.0	 1	     1.0514	    23.3416	 400.0	 1	     1.0600	     0.9400;
	94	 2	 0.0	 0.0	 0.0	 0.0	 1	     1.0530	    31.5402	 400.0	 1	     1.0600	     0.9400;
	95	 1	 0.0	 0.0	 0.0	 0.0	 1	     1.0501	    23.1662	 400.0	 1	     1.0600	     0.9400;
	96	 2	 0.0	 0.0	 0.0	 0.0	 1	     1.0530	    31.0070	 400.0	 1	     1.0600	     0.9400;
	97	 2	 0.0	 0.0	 0.0	 0.0	 1	     1.0530	    31.0025	 400.0	 1	     1.0600	     0.9400;
	98	 1	 0.0	 0.0	 0.0	 0.0	 1	     1.0528	    27.9944	 400.0	 1	     1.0600	     0.9400;
	99	 2	 0.0	 0.0	 0.0	 0.0	 1	     1.0530	    36.0731	 400.0	 1	     1.0600	     0.9400;
	100	 2	 0.0	 0.0	 0.0	 0.0	 1	     1.0530	    35.3815	 400.0	 1	     1.0600	     0.9400;
	101	 2	 0.0	 0.0	 0.0	 0.0	 1	     1.0530	    36.0097	 400.0	 1	     1.0600	     0.9400;
	102	 2	 0.0	 0.0	 0.0	 0.0	 1	     1.0530	    36.0097	 400.0	 1	     1.0600	     0.9400;
	103	 2	 0.0	 0.0	 0.0	 0.0	 1	     1.0530	    36.0522	 400.0	 1	     1.0600	     0.9400;
	104	 2	 0.0	 0.0	 0.0	 0.0	 1	     1.0530	    36.0522	 400.0	 1	     1.0600	     0.9400;
	105	 2	 0.0	 0.0	 0.0	 0.0	 1	     1.0530	    35.8842	 400.0	 1	     1.0600	     0.9400;
	106	 2	 0.0	 0.0	 0.0	 0.0	 1	     1.0530	    35.8842	 400.0	 1	     1.0600	     0.9400;
	107	 2	 0.0	 0.0	 0.0	 0.0	 1	     1.0530	    35.8842	 400.0	 1	     1.0600	     0.9400;
	108	 2	 0.0	 0.0	 0.0	 0.0	 1	     1.0530	    35.0714	 400.0	 1	     1.0600	     0.9400;
	109	 1	 0.0	 0.0	 0.0	 0.0	 1	     1.0524	     1.2090	 400.0	 1	     1.0600	     0.9400;
	110	 2	 0.0	 0.0	 0.0	 0.0	 1	     1.0530	     5.7289	 400.0	 1	     1.0600	     0.9400;
	111	 2	 0.0	 0.0	 0.0	 0.0	 1	     1.0530	     5.7216	 400.0	 1	     1.0600	     0.9400;
	112	 1	 0.0	 0.0	 0.0	 0.0	 1	     1.0529	     2.6686	 400.0	 1	     1.0600	     0.9400;
	113	 2	 0.0	 0.0	 0.0	 0.0	 1	     1.0530	     6.9404	 400.0	 1	     1.0600	     0.9400;
	114	 2	 0.0	 0.0	 0.0	 0.0	 1	     1.0530	     7.2157	 400.0	 1	     1.0600	     0.9400;
	115	 1	 0.0	 0.0	 0.0	 0.0	 1	     1.0524	     8.9462	 400.0	 1	     1.0600	     0.9400;
	116	 2	 0.0	 0.0	 0.0	 0.0	 1	     1.0530	    19.2041	 400.0	 1	     1.0600	     0.9400;
	117	 2	 0.0	 0.0	 0.0	 0.0	 1	     1.0530	    19.1290	 400.0	 1	     1.0600	     0.9400;
	118	 2	 0.0	 0.0	 0.0	 0.0	 1	     1.0530	    17.1037	 400.0	 1	     1.0600	     0.9400;
	119	 1	 0.0	 0.0	 0.0	 0.0	 1	     1.0460	    -2.1519	 400.0	 1	     1.0600	     0.9400;
	120	 2	 0.0	 0.0	 0.0	 0.0	 1	     1.0530	     0.9816	 400.0	 1	     1.0600	     0.9400;
	121	 2	 0.0	 0.0	 0.0	 0.0	 1	     1.0530	     0.9579	 400.0	 1	     1.0600	     0.9400;
	122	 2	 0.0	 0.0	 0.0	 0.0	 1	     0.9997	    -2.1519	 400.0	 1	     1.0600	     0.9400;
	123	 1	 0.0	 0.0	 0.0	 0.0	 1	     1.0514	     1.0567	 400.0	 1	     1.0600	     0.9400;
	124	 2	 0.0	 0.0	 0.0	 0.0	 1	     1.0530	     9.3374	 400.0	 1	     1.0600	     0.9400;
	125	 2	 0.0	 0.0	 0.0	 0.0	 1	     1.0530	     9.3159	 400.0	 1	     1.0600	     0.9400;
	126	 2	 0.0	 0.0	 0.0	 0.0	 1	     1.0530	     9.3830	 400.0	 1	     1.0600	     0.9400;
	127	 1	 0.0	 0.0	 0.0	 0.0	 1	     1.0461	     5.9997	 400.0	 1	     1.0600	     0.9400;
	128	 2	 0.0	 0.0	 0.0	 0.0	 1	     1.0530	    10.3951	 400.0	 1	     1.0600	     0.9400;
	129	 2	 0.0	 0.0	 0.0	 0.0	 1	     1.0530	     9.1593	 400.0	 1	     1.0600	     0.9400;
	130	 1	 0.0	 0.0	 0.0	 0.0	 1	     1.0397	     5.4684	 400.0	 1	     1.0600	     0.9400;
	131	 2	 0.0	 0.0	 0.0	 0.0	 1	     1.0530	     8.6387	 400.0	 1	     1.0600	     0.9400;
	132	 2	 0.0	 0.0	 0.0	 0.0	 1	     1.0530	     9.4284	 400.0	 1	     1.0600	     0.9400;
	133	 1	 17.68	 0.0	 0.0	 0.0	 1	     1.0530	     5.0631	 400.0	 1	     1.0600	     0.9400;
	134	 2	 0.0	 0.0	 0.0	 0.0	 1	     1.0530	     9.0113	 400.0	 1	     1.0600	     0.9400;
	135	 2	 0.0	 0.0	 0.0	 0.0	 1	     1.0530	     8.9487	 400.0	 1	     1.0600	     0.9400;
	136	 1	 0.0	 0.0	 0.0	 0.0	 1	     1.0495	     4.8068	 400.0	 1	     1.0600	     0.9400;
	137	 2	 0.0	 0.0	 0.0	 0.0	 1	     1.0530	    13.4631	 400.0	 1	     1.0600	     0.9400;
	138	 2	 0.0	 0.0	 0.0	 0.0	 1	     1.0530	    12.6489	 400.0	 1	     1.0600	     0.9400;
	139	 2	 0.0	 0.0	 0.0	 0.0	 1	     1.0530	    13.5123	 400.0	 1	     1.0600	     0.9400;
	140	 2	 0.0	 0.0	 0.0	 0.0	 1	     1.0530	    11.9276	 400.0	 1	     1.0600	     0.9400;
	141	 1	 4.5	 3.37	 0.0	 0.0	 1	     1.0530	     5.7220	 400.0	 1	     1.0600	     0.9400;
	142	 2	 0.0	 0.0	 0.0	 0.0	 1	     1.0530	     8.9705	 400.0	 1	     1.0600	     0.9400;
	143	 2	 0.0	 0.0	 0.0	 0.0	 1	     1.0530	     8.9792	 400.0	 1	     1.0600	     0.9400;
	144	 1	 0.0	 0.0	 0.0	 0.0	 1	     1.0479	    32.4623	 275.0	 1	     1.0600	     0.9400;
	145	 2	 0.0	 0.0	 0.0	 0.0	 1	     1.0530	    45.0702	 275.0	 1	     1.0600	     0.9400;
	146	 2	 0.0	 0.0	 0.0	 0.0	 1	     1.0530	    45.1787	 275.0	 1	     1.0600	     0.9400;
	147	 2	 0.0	 0.0	 0.0	 0.0	 1	     1.0530	    45.1787	 275.0	 1	     1.0600	     0.9400;
	148	 2	 0.0	 0.0	 0.0	 0.0	 1	     1.0530	    45.2316	 275.0	 1	     1.0600	     0.9400;
	149	 1	 0.0	 0.0	 0.0	 0.0	 1	     1.0479	    32.4371	 275.0	 1	     1.0600	     0.9400;
	150	 2	 0.0	 0.0	 0.0	 0.0	 1	     1.0530	    45.0672	 275.0	 1	     1.0600	     0.9400;
	151	 2	 0.0	 0.0	 0.0	 0.0	 1	     1.0530	    45.1873	 275.0	 1	     1.0600	     0.9400;
	152	 2	 0.0	 0.0	 0.0	 0.0	 1	     1.0530	    45.0672	 275.0	 1	     1.0600	     0.9400;
	153	 2	 0.0	 0.0	 0.0	 0.0	 1	     1.0530	    45.1361	 275.0	 1	     1.0600	     0.9400;
	154	 2	 0.0	 0.0	 0.0	 0.0	 1	     1.0530	    39.0635	 275.0	 1	     1.0600	     0.9400;
	155	 2	 0.0	 0.0	 0.0	 0.0	 1	     1.0530	    39.1243	 275.0	 1	     1.0600	     0.9400;
	156	 2	 0.0	 0.0	 0.0	 0.0	 1	     1.0058	    32.4623	 275.0	 1	     1.0600	     0.9400;
	157	 1	 0.0	 0.0	 0.0	 0.0	 1	     1.0500	     1.8604	 275.0	 1	     1.0600	     0.9400;
	158	 2	 0.0	 0.0	 0.0	 0.0	 1	     0.9915	     1.8604	 275.0	 1	     1.0600	     0.9400;
	159	 2	 0.0	 0.0	 0.0	 0.0	 1	     1.0530	     8.6966	 275.0	 1	     1.0600	     0.9400;
	160	 1	 0.0	 0.0	 0.0	 0.0	 1	     1.0530	     2.4134	 275.0	 1	     1.0600	     0.9400;
	161	 2	 0.0	 0.0	 0.0	 0.0	 1	     1.0530	     9.3013	 275.0	 1	     1.0600	     0.9400;
	162	 2	 0.0	 0.0	 0.0	 0.0	 1	     1.0530	     9.2162	 275.0	 1	     1.0600	     0.9400;
	163	 1	 0.0	 0.0	 0.0	 0.0	 1	     1.0530	    17.6886	 400.0	 1	     1.0600	     0.9400;
	164	 2	 0.0	 0.0	 0.0	 0.0	 1	     1.0530	    21.8145	 400.0	 1	     1.0600	     0.9400;
	165	 2	 0.0	 0.0	 0.0	 0.0	 1	     1.0530	    21.8422	 400.0	 1	     1.0600	     0.9400;
	166	 2	 0.0	 0.0	 0.0	 0.0	 1	     1.0530	    21.8683	 400.0	 1	     1.0600	     0.9400;
	167	 2	 0.0	 0.0	 0.0	 0.0	 1	     1.0530	    21.8466	 400.0	 1	     1.0600	     0.9400;
	168	 1	 0.0	 0.0	 0.0	 0.0	 1	     1.0458	    23.4949	 400.0	 1	     1.0600	     0.9400;
	169	 2	 0.0	 0.0	 0.0	 0.0	 1	     1.0530	    30.7823	 400.0	 1	     1.0600	     0.9400;
	170	 2	 0.0	 0.0	 0.0	 0.0	 1	     1.0530	    30.9603	 400.0	 1	     1.0600	     0.9400;
	171	 2	 0.0	 0.0	 0.0	 0.0	 1	     1.0530	    30.7184	 400.0	 1	     1.0600	     0.9400;
	172	 2	 0.0	 0.0	 0.0	 0.0	 1	     1.0530	    30.5500	 400.0	 1	     1.0600	     0.9400;
	173	 1	 0.0	 0.0	 0.0	 0.0	 1	     1.0530	    16.9947	 400.0	 1	     1.0600	     0.9400;
	174	 2	 0.0	 0.0	 0.0	 0.0	 1	     1.0530	    22.8854	 400.0	 1	     1.0600	     0.9400;
	175	 2	 0.0	 0.0	 0.0	 0.0	 1	     1.0530	    22.8936	 400.0	 1	     1.0600	     0.9400;
	176	 2	 0.0	 0.0	 0.0	 0.0	 1	     1.0530	    22.9215	 400.0	 1	     1.0600	     0.9400;
	177	 2	 0.0	 0.0	 0.0	 0.0	 1	     1.0530	    22.9100	 400.0	 1	     1.0600	     0.9400;
	178	 2	 0.0	 0.0	 0.0	 0.0	 1	     1.0530	     8.0184	 400.0	 1	     1.0600	     0.9400;
	179	 2	 0.0	 0.0	 0.0	 0.0	 1	     1.0530	     8.0184	 400.0	 1	     1.0600	     0.9400;
	180	 2	 0.0	 0.0	 0.0	 0.0	 1	     1.0530	     7.5806	 400.0	 1	     1.0600	     0.9400;
	181	 1	 0.0	 0.0	 0.0	 0.0	 1	     1.0485	   -13.1392	 400.0	 1	     1.0600	     0.9400;
	182	 2	 0.0	 0.0	 0.0	 0.0	 1	     1.0092	   -13.1392	 400.0	 1	     1.0600	     0.9400;
	183	 1	 0.0	 0.0	 0.0	 0.0	 1	     1.0530	    28.9168	 400.0	 1	     1.0600	     0.9400;
	184	 2	 0.0	 0.0	 0.0	 0.0	 1	     1.0530	    37.7580	 400.0	 1	     1.0600	     0.9400;
	185	 2	 0.0	 0.0	 0.0	 0.0	 1	     1.0530	    37.7861	 400.0	 1	     1.0600	     0.9400;
	186	 2	 0.0	 0.0	 0.0	 0.0	 1	     1.0530	    37.7472	 400.0	 1	     1.0600	     0.9400;
	187	 2	 0.0	 0.0	 0.0	 0.0	 1	     1.0530	    35.8613	 400.0	 1	     1.0600	     0.9400;
	188	 2	 0.0	 0.0	 0.0	 0.0	 1	     1.0530	     5.6204	 400.0	 1	     1.0600	     0.9400;
	189	 2	 0.0	 0.0	 0.0	 0.0	 1	     1.0530	     5.6369	 400.0	 1	     1.0600	     0.9400;
	190	 2	 0.0	 0.0	 0.0	 0.0	 1	     1.0530	     5.1976	 400.0	 1	     1.0600	     0.9400;
	191	 2	 0.0	 0.0	 0.0	 0.0	 1	     1.0530	    37.9702	 400.0	 1	     1.0600	     0.9400;
	192	 2	 0.0	 0.0	 0.0	 0.0	 1	     1.0530	    37.9992	 400.0	 1	     1.0600	     0.9400;
	193	 2	 0.0	 0.0	 0.0	 0.0	 1	     1.0530	    37.6688	 400.0	 1	     1.0600	     0.9400;
	194	 1	 125.64	 71.0	 0.0	 0.0	 1	     1.0523	    17.2388	 400.0	 1	     1.0600	     0.9400;
	195	 2	 0.0	 0.0	 0.0	 0.0	 1	     1.0530	    24.0269	 400.0	 1	     1.0600	     0.9400;
	196	 2	 0.0	 0.0	 0.0	 0.0	 1	     1.0530	    24.0269	 400.0	 1	     1.0600	     0.9400;
	197	 2	 0.0	 0.0	 0.0	 0.0	 1	     1.0530	    24.0269	 400.0	 1	     1.0600	     0.9400;
	198	 1	 0.0	 0.0	 0.0	 0.0	 1	     1.0530	    12.0447	 400.0	 1	     1.0600	     0.9400;
	199	 2	 0.0	 0.0	 0.0	 0.0	 1	     1.0530	    19.0745	 400.0	 1	     1.0600	     0.9400;
	200	 2	 0.0	 0.0	 0.0	 0.0	 1	     1.0530	    19.0745	 400.0	 1	     1.0600	     0.9400;
...
];

%% generator data
%	bus	Pg	Qg	Qmax	Qmin	Vg	mBase	status	Pmax	Pmin	Pc1	Pc2	Qc1min	Qc1max	Qc2min	Qc2max	ramp_agc	ramp_10	ramp_30	ramp_q	apf
mpc.gen = [
	2	 303.7966	 11.6864	 298.0	 -81.0	 1.05	 100.0	 1	 820.5	 0.0	 0.0	 0.0	 0.0	 0.0	 0.0	 0.0	 0.0	 0.0	 0.0	 0.0	 0.0; % COW
	3	 304.3822	 18.8436	 298.0	 -81.0	 1.05	 100.0	 1	 820.5	 0.0	 0.0	 0.0	 0.0	 0.0	 0.0	 0.0	 0.0	 0.0	 0.0	 0.0	 0.0; % COW
	4	 303.9515	 12.993	 298.0	 -81.0	 1.05	 100.0	 1	 820.5	 0.0	 0.0	 0.0	 0.0	 0.0	 0.0	 0.0	 0.0	 0.0	 0.0	 0.0	 0.0; % COW
	6	 191.25	 39.0691	 78.0	 -45.0	 1.05	 100.0	 1	 191.25	 0.0	 0.0	 0.0	 0.0	 0.0	 0.0	 0.0	 0.0	 0.0	 0.0	 0.0	 0.0; % COW
	7	 191.25	 39.0639	 78.0	 -45.0	 1.05	 100.0	 1	 191.25	 0.0	 0.0	 0.0	 0.0	 0.0	 0.0	 0.0	 0.0	 0.0	 0.0	 0.0	 0.0; % NG
	9	 191.25	 32.7382	 81.0	 -46.0	 1.05	 100.0	 1	 191.25	 0.0	 0.0	 0.0	 0.0	 0.0	 0.0	 0.0	 0.0	 0.0	 0.0	 0.0	 0.0; % NG
	10	 191.25	 33.7448	 78.0	 -45.0	 1.05	 100.0	 1	 191.25	 0.0	 0.0	 0.0	 0.0	 0.0	 0.0	 0.0	 0.0	 0.0	 0.0	 0.0	 0.0; % NG
	11	 191.25	 33.7382	 78.0	 -45.0	 1.05	 100.0	 1	 191.25	 0.0	 0.0	 0.0	 0.0	 0.0	 0.0	 0.0	 0.0	 0.0	 0.0	 0.0	 0.0; % NG
	12	 209.25	 42.7363	 78.0	 -46.0	 1.05	 100.0	 1	 209.25	 0.0	 0.0	 0.0	 0.0	 0.0	 0.0	 0.0	 0.0	 0.0	 0.0	 0.0	 0.0; % NG
	13	 302.3886	 67.1289	 125.0	 -70.0	 1.05	 100.0	 1	 334.5	 0.0	 0.0	 0.0	 0.0	 0.0	 0.0	 0.0	 0.0	 0.0	 0.0	 0.0	 0.0; % NG
	15	 290.4628	 115.3728	 263.0	 -120.0	 1.05	 100.0	 1	 742.5	 0.0	 0.0	 0.0	 0.0	 0.0	 0.0	 0.0	 0.0	 0.0	 0.0	 0.0	 0.0; % COW
	16	 290.18	 73.7579	 243.0	 -115.0	 1.05	 100.0	 1	 757.5	 0.0	 0.0	 0.0	 0.0	 0.0	 0.0	 0.0	 0.0	 0.0	 0.0	 0.0	 0.0; % COW
	17	 290.4318	 108.6465	 243.0	 -120.0	 1.05	 100.0	 1	 757.5	 0.0	 0.0	 0.0	 0.0	 0.0	 0.0	 0.0	 0.0	 0.0	 0.0	 0.0	 0.0; % COW
	18	 290.3847	 99.8157	 263.0	 -120.0	 1.05	 100.0	 1	 742.5	 0.0	 0.0	 0.0	 0.0	 0.0	 0.0	 0.0	 0.0	 0.0	 0.0	 0.0	 0.0; % COW
	20	 290.1997	 82.3995	 107.4	 -56.8	 1.05	 100.0	 1	 300.0	 0.0	 0.0	 0.0	 0.0	 0.0	 0.0	 0.0	 0.0	 0.0	 0.0	 0.0	 0.0; % COW
	21	 290.1997	 82.3995	 107.4	 -56.8	 1.05	 100.0	 1	 300.0	 0.0	 0.0	 0.0	 0.0	 0.0	 0.0	 0.0	 0.0	 0.0	 0.0	 0.0	 0.0; % NG
	22	 144.0	 82.3995	 116.2	 -59.0	 1.05	 100.0	 1	 144.0	 0.0	 0.0	 0.0	 0.0	 0.0	 0.0	 0.0	 0.0	 0.0	 0.0	 0.0	 0.0; % COW
	24	 305.1217	 128.7354	 282.71	 -180.97	 1.05	 100.0	 1	 790.5	 0.0	 0.0	 0.0	 0.0	 0.0	 0.0	 0.0	 0.0	 0.0	 0.0	 0.0	 0.0; % COW
	25	 305.002	 117.5675	 302.66	 -174.4	 1.05	 100.0	 1	 790.5	 0.0	 0.0	 0.0	 0.0	 0.0	 0.0	 0.0	 0.0	 0.0	 0.0	 0.0	 0.0; % COW
	27	 304.5867	 94.3011	 282.71	 -180.97	 1.05	 100.0	 1	 790.5	 0.0	 0.0	 0.0	 0.0	 0.0	 0.0	 0.0	 0.0	 0.0	 0.0	 0.0	 0.0; % NUC
	28	 304.6193	 96.786	 282.71	 -180.97	 1.05	 100.0	 1	 790.5	 0.0	 0.0	 0.0	 0.0	 0.0	 0.0	 0.0	 0.0	 0.0	 0.0	 0.0	 0.0; % COW
	30	 286.8438	 -27.7783	 115.0	 -115.0	 1.05	 100.0	 1	 300.0	 0.0	 0.0	 0.0	 0.0	 0.0	 0.0	 0.0	 0.0	 0.0	 0.0	 0.0	 0.0; % NG
	31	 286.8438	 -27.7783	 115.0	 -115.0	 1.05	 100.0	 1	 300.0	 0.0	 0.0	 0.0	 0.0	 0.0	 0.0	 0.0	 0.0	 0.0	 0.0	 0.0	 0.0; % NG
	32	 286.8438	 -27.7783	 115.0	 -115.0	 1.05	 100.0	 1	 300.0	 0.0	 0.0	 0.0	 0.0	 0.0	 0.0	 0.0	 0.0	 0.0	 0.0	 0.0	 0.0; % NG
	33	 286.8438	 -27.7783	 115.0	 -115.0	 1.05	 100.0	 1	 300.0	 0.0	 0.0	 0.0	 0.0	 0.0	 0.0	 0.0	 0.0	 0.0	 0.0	 0.0	 0.0; % COW
	34	 286.8438	 -27.7783	 115.0	 -115.0	 1.05	 100.0	 1	 300.0	 0.0	 0.0	 0.0	 0.0	 0.0	 0.0	 0.0	 0.0	 0.0	 0.0	 0.0	 0.0; % NG
	35	 0.0	 0.0	 0.0	 0.0	 1.01	 100.0	 1	 0.0	 0.0	 0.0	 0.0	 0.0	 0.0	 0.0	 0.0	 0.0	 0.0	 0.0	 0.0	 0.0; % SYNC
	37	 288.1762	 91.9124	 380.0	 -198.0	 1.05	 100.0	 1	 973.5	 0.0	 0.0	 0.0	 0.0	 0.0	 0.0	 0.0	 0.0	 0.0	 0.0	 0.0	 0.0; % NUC
	38	 288.1763	 91.9276	 380.0	 -198.0	 1.05	 100.0	 1	 973.5	 0.0	 0.0	 0.0	 0.0	 0.0	 0.0	 0.0	 0.0	 0.0	 0.0	 0.0	 0.0; % COW
	39	 288.1758	 91.8621	 380.0	 -198.0	 1.05	 100.0	 1	 973.5	 0.0	 0.0	 0.0	 0.0	 0.0	 0.0	 0.0	 0.0	 0.0	 0.0	 0.0	 0.0; % NUC
	41	 288.5539	 122.3476	 380.0	 -184.0	 1.05	 100.0	 1	 973.5	 0.0	 0.0	 0.0	 0.0	 0.0	 0.0	 0.0	 0.0	 0.0	 0.0	 0.0	 0.0; % COW
	42	 288.5536	 122.3044	 380.0	 -184.0	 1.05	 100.0	 1	 973.5	 0.0	 0.0	 0.0	 0.0	 0.0	 0.0	 0.0	 0.0	 0.0	 0.0	 0.0	 0.0; % COW
	43	 288.585	 127.7988	 380.0	 -184.0	 1.05	 100.0	 1	 973.5	 0.0	 0.0	 0.0	 0.0	 0.0	 0.0	 0.0	 0.0	 0.0	 0.0	 0.0	 0.0; % COW
	45	 314.7812	 185.6172	 409.0	 -217.0	 1.05	 100.0	 1	 811.5	 0.0	 0.0	 0.0	 0.0	 0.0	 0.0	 0.0	 0.0	 0.0	 0.0	 0.0	 0.0; % NG
	46	 314.763	 177.2822	 402.0	 -227.0	 1.05	 100.0	 1	 811.5	 0.0	 0.0	 0.0	 0.0	 0.0	 0.0	 0.0	 0.0	 0.0	 0.0	 0.0	 0.0; % COW
	48	 289.2201	 138.6899	 289.0	 -84.0	 1.05	 100.0	 1	 724.5	 0.0	 0.0	 0.0	 0.0	 0.0	 0.0	 0.0	 0.0	 0.0	 0.0	 0.0	 0.0; % COW
	49	 288.6363	 93.6437	 308.0	 -84.0	 1.05	 100.0	 1	 724.5	 0.0	 0.0	 0.0	 0.0	 0.0	 0.0	 0.0	 0.0	 0.0	 0.0	 0.0	 0.0; % COW
	51	 288.1725	 93.1616	 241.0	 -81.0	 1.05	 100.0	 1	 732.0	 0.0	 0.0	 0.0	 0.0	 0.0	 0.0	 0.0	 0.0	 0.0	 0.0	 0.0	 0.0; % COW
	52	 288.4486	 114.6091	 268.0	 -82.0	 1.05	 100.0	 1	 732.0	 0.0	 0.0	 0.0	 0.0	 0.0	 0.0	 0.0	 0.0	 0.0	 0.0	 0.0	 0.0; % COW
	54	 0.0	 0.0	 0.0	 0.0	 1.01	 100.0	 1	 0.0	 0.0	 0.0	 0.0	 0.0	 0.0	 0.0	 0.0	 0.0	 0.0	 0.0	 0.0	 0.0; % SYNC
	55	 0.0	 0.0	 0.0	 0.0	 1.01	 100.0	 1	 0.0	 0.0	 0.0	 0.0	 0.0	 0.0	 0.0	 0.0	 0.0	 0.0	 0.0	 0.0	 0.0; % SYNC
	57	 289.9488	 193.7612	 286.0	 -86.0	 1.05	 100.0	 1	 735.0	 0.0	 0.0	 0.0	 0.0	 0.0	 0.0	 0.0	 0.0	 0.0	 0.0	 0.0	 0.0; % NUC
	59	 290.7522	 286.0	 286.0	 -86.0	 1.05	 100.0	 1	 735.0	 0.0	 0.0	 0.0	 0.0	 0.0	 0.0	 0.0	 0.0	 0.0	 0.0	 0.0	 0.0; % NUC
	61	 291.1783	 286.0	 286.0	 -86.0	 1.05	 100.0	 1	 735.0	 0.0	 0.0	 0.0	 0.0	 0.0	 0.0	 0.0	 0.0	 0.0	 0.0	 0.0	 0.0; % COW
	62	 289.9952	 202.9429	 287.0	 -81.0	 1.05	 100.0	 1	 735.0	 0.0	 0.0	 0.0	 0.0	 0.0	 0.0	 0.0	 0.0	 0.0	 0.0	 0.0	 0.0; % COW
	64	 270.0	 27.2528	 60.0	 -60.0	 1.05	 100.0	 1	 270.0	 0.0	 0.0	 0.0	 0.0	 0.0	 0.0	 0.0	 0.0	 0.0	 0.0	 0.0	 0.0; % NG
	65	 135.0	 -10.4599	 30.0	 -30.0	 1.04	 100.0	 1	 135.0	 0.0	 0.0	 0.0	 0.0	 0.0	 0.0	 0.0	 0.0	 0.0	 0.0	 0.0	 0.0; % NG
	67	 292.3875	 110.3622	 308.0	 -95.0	 1.05	 100.0	 1	 727.5	 0.0	 0.0	 0.0	 0.0	 0.0	 0.0	 0.0	 0.0	 0.0	 0.0	 0.0	 0.0; % COW
	69	 292.3719	 112.5053	 311.0	 -95.0	 1.05	 100.0	 1	 727.5	 0.0	 0.0	 0.0	 0.0	 0.0	 0.0	 0.0	 0.0	 0.0	 0.0	 0.0	 0.0; % COW
	71	 292.7575	 144.0456	 329.0	 -101.0	 1.05	 100.0	 1	 727.5	 0.0	 0.0	 0.0	 0.0	 0.0	 0.0	 0.0	 0.0	 0.0	 0.0	 0.0	 0.0; % COW
	73	 292.7764	 142.4962	 203.0	 -91.0	 1.05	 100.0	 1	 759.0	 0.0	 0.0	 0.0	 0.0	 0.0	 0.0	 0.0	 0.0	 0.0	 0.0	 0.0	 0.0; % COW
	75	 0.0	 0.0	 0.0	 0.0	 1.0	 100.0	 1	 0.0	 0.0	 0.0	 0.0	 0.0	 0.0	 0.0	 0.0	 0.0	 0.0	 0.0	 0.0	 0.0; % SYNC
	76	 0.0	 0.0	 0.0	 0.0	 1.0	 100.0	 1	 0.0	 0.0	 0.0	 0.0	 0.0	 0.0	 0.0	 0.0	 0.0	 0.0	 0.0	 0.0	 0.0; % SYNC
	77	 0.0	 0.0	 0.0	 0.0	 1.0	 100.0	 1	 0.0	 0.0	 0.0	 0.0	 0.0	 0.0	 0.0	 0.0	 0.0	 0.0	 0.0	 0.0	 0.0; % SYNC
	78	 0.0	 0.0	 0.0	 0.0	 1.0	 100.0	 1	 0.0	 0.0	 0.0	 0.0	 0.0	 0.0	 0.0	 0.0	 0.0	 0.0	 0.0	 0.0	 0.0; % SYNC
	80	 287.2248	 218.7852	 367.0	 -210.0	 1.05	 100.0	 1	 906.0	 0.0	 0.0	 0.0	 0.0	 0.0	 0.0	 0.0	 0.0	 0.0	 0.0	 0.0	 0.0; % COW
	81	 287.2549	 230.1573	 351.0	 -208.0	 1.05	 100.0	 1	 906.0	 0.0	 0.0	 0.0	 0.0	 0.0	 0.0	 0.0	 0.0	 0.0	 0.0	 0.0	 0.0; % NUC
	83	 300.4165	 121.9362	 392.0	 -206.0	 1.05	 100.0	 1	 910.5	 0.0	 0.0	 0.0	 0.0	 0.0	 0.0	 0.0	 0.0	 0.0	 0.0	 0.0	 0.0; % NUC
	84	 300.3998	 117.0011	 398.0	 -207.0	 1.05	 100.0	 1	 894.0	 0.0	 0.0	 0.0	 0.0	 0.0	 0.0	 0.0	 0.0	 0.0	 0.0	 0.0	 0.0; % NUC
	85	 300.4498	 133.1419	 367.0	 -188.0	 1.05	 100.0	 1	 900.75	 0.0	 0.0	 0.0	 0.0	 0.0	 0.0	 0.0	 0.0	 0.0	 0.0	 0.0	 0.0; % COW
	86	 300.45	 133.2219	 362.0	 -187.0	 1.05	 100.0	 1	 903.75	 0.0	 0.0	 0.0	 0.0	 0.0	 0.0	 0.0	 0.0	 0.0	 0.0	 0.0	 0.0; % COW
	88	 320.3082	 60.8053	 312.0	 -155.0	 1.05	 100.0	 1	 966.0	 0.0	 0.0	 0.0	 0.0	 0.0	 0.0	 0.0	 0.0	 0.0	 0.0	 0.0	 0.0; % COW
	89	 320.2899	 58.2679	 289.0	 -204.0	 1.05	 100.0	 1	 925.5	 0.0	 0.0	 0.0	 0.0	 0.0	 0.0	 0.0	 0.0	 0.0	 0.0	 0.0	 0.0; % COW
	91	 298.5716	 296.0	 296.0	 -99.0	 1.05	 100.0	 1	 723.0	 0.0	 0.0	 0.0	 0.0	 0.0	 0.0	 0.0	 0.0	 0.0	 0.0	 0.0	 0.0; % COW
	92	 298.5988	 296.0	 296.0	 -92.0	 1.05	 100.0	 1	 723.0	 0.0	 0.0	 0.0	 0.0	 0.0	 0.0	 0.0	 0.0	 0.0	 0.0	 0.0	 0.0; % PEL
	94	 285.4042	 138.0	 138.0	 -75.0	 1.05	 100.0	 1	 367.5	 0.0	 0.0	 0.0	 0.0	 0.0	 0.0	 0.0	 0.0	 0.0	 0.0	 0.0	 0.0; % NG
	96	 285.8162	 38.4515	 155.0	 -72.0	 1.05	 100.0	 1	 367.5	 0.0	 0.0	 0.0	 0.0	 0.0	 0.0	 0.0	 0.0	 0.0	 0.0	 0.0	 0.0; % NG
	97	 285.8163	 38.4523	 145.9	 -79.0	 1.05	 100.0	 1	 367.5	 0.0	 0.0	 0.0	 0.0	 0.0	 0.0	 0.0	 0.0	 0.0	 0.0	 0.0	 0.0; % NG
	99	 216.0	 24.3046	 87.2	 -52.8	 1.05	 100.0	 1	 216.0	 0.0	 0.0	 0.0	 0.0	 0.0	 0.0	 0.0	 0.0	 0.0	 0.0	 0.0	 0.0; % NG
	100	 216.0	 36.4629	 87.2	 -52.8	 1.05	 100.0	 1	 216.0	 0.0	 0.0	 0.0	 0.0	 0.0	 0.0	 0.0	 0.0	 0.0	 0.0	 0.0	 0.0; % NG
	101	 216.0	 24.3106	 87.2	 -52.8	 1.05	 100.0	 1	 216.0	 0.0	 0.0	 0.0	 0.0	 0.0	 0.0	 0.0	 0.0	 0.0	 0.0	 0.0	 0.0; % COW
	102	 216.0	 24.3106	 87.2	 -52.8	 1.05	 100.0	 1	 216.0	 0.0	 0.0	 0.0	 0.0	 0.0	 0.0	 0.0	 0.0	 0.0	 0.0	 0.0	 0.0; % NG
	103	 243.0	 31.7963	 103.0	 -55.0	 1.05	 100.0	 1	 243.0	 0.0	 0.0	 0.0	 0.0	 0.0	 0.0	 0.0	 0.0	 0.0	 0.0	 0.0	 0.0; % NG
	104	 243.0	 31.7963	 103.0	 -55.0	 1.05	 100.0	 1	 243.0	 0.0	 0.0	 0.0	 0.0	 0.0	 0.0	 0.0	 0.0	 0.0	 0.0	 0.0	 0.0; % NG
	105	 216.9	 24.7567	 75.92	 -52.46	 1.05	 100.0	 1	 216.9	 0.0	 0.0	 0.0	 0.0	 0.0	 0.0	 0.0	 0.0	 0.0	 0.0	 0.0	 0.0; % COW
	106	 216.9	 24.7567	 75.92	 -52.46	 1.05	 100.0	 1	 216.9	 0.0	 0.0	 0.0	 0.0	 0.0	 0.0	 0.0	 0.0	 0.0	 0.0	 0.0	 0.0; % COW
	107	 216.9	 24.7567	 75.92	 -52.46	 1.05	 100.0	 1	 216.9	 0.0	 0.0	 0.0	 0.0	 0.0	 0.0	 0.0	 0.0	 0.0	 0.0	 0.0	 0.0; % NG
	108	 281.6044	 34.4504	 139.82	 -78.06	 1.05	 100.0	 1	 346.8	 0.0	 0.0	 0.0	 0.0	 0.0	 0.0	 0.0	 0.0	 0.0	 0.0	 0.0	 0.0; % NG
	110	 303.296	 80.9664	 286.0	 -64.0	 1.05	 100.0	 1	 727.5	 0.0	 0.0	 0.0	 0.0	 0.0	 0.0	 0.0	 0.0	 0.0	 0.0	 0.0	 0.0; % COW
	111	 303.3132	 82.8649	 286.0	 -64.0	 1.05	 100.0	 1	 727.5	 0.0	 0.0	 0.0	 0.0	 0.0	 0.0	 0.0	 0.0	 0.0	 0.0	 0.0	 0.0; % COW
	113	 302.5446	 80.3976	 286.0	 -64.0	 1.05	 100.0	 1	 727.5	 0.0	 0.0	 0.0	 0.0	 0.0	 0.0	 0.0	 0.0	 0.0	 0.0	 0.0	 0.0; % COW
	114	 302.5428	 80.1999	 286.0	 -64.0	 1.05	 100.0	 1	 727.5	 0.0	 0.0	 0.0	 0.0	 0.0	 0.0	 0.0	 0.0	 0.0	 0.0	 0.0	 0.0; % COW
	116	 297.3915	 128.0	 128.0	 -78.0	 1.05	 100.0	 1	 315.0	 0.0	 0.0	 0.0	 0.0	 0.0	 0.0	 0.0	 0.0	 0.0	 0.0	 0.0	 0.0; % NG
	117	 297.4102	 128.0	 128.0	 -78.0	 1.05	 100.0	 1	 315.0	 0.0	 0.0	 0.0	 0.0	 0.0	 0.0	 0.0	 0.0	 0.0	 0.0	 0.0	 0.0; % NG
	118	 297.6882	 158.0	 158.0	 -84.0	 1.05	 100.0	 1	 367.5	 0.0	 0.0	 0.0	 0.0	 0.0	 0.0	 0.0	 0.0	 0.0	 0.0	 0.0	 0.0; % NG
	120	 306.8929	 63.1703	 335.0	 -204.0	 1.05	 100.0	 1	 750.0	 0.0	 0.0	 0.0	 0.0	 0.0	 0.0	 0.0	 0.0	 0.0	 0.0	 0.0	 0.0; % COW
	121	 306.8755	 61.4142	 335.0	 -204.0	 1.05	 100.0	 1	 750.0	 0.0	 0.0	 0.0	 0.0	 0.0	 0.0	 0.0	 0.0	 0.0	 0.0	 0.0	 0.0; % COW
	122	 0.0	 0.0	 0.0	 0.0	 1.0	 100.0	 1	 0.0	 0.0	 0.0	 0.0	 0.0	 0.0	 0.0	 0.0	 0.0	 0.0	 0.0	 0.0	 0.0; % SYNC
	124	 291.7829	 6.5327	 149.0	 -88.0	 1.05	 100.0	 1	 340.05	 0.0	 0.0	 0.0	 0.0	 0.0	 0.0	 0.0	 0.0	 0.0	 0.0	 0.0	 0.0; % NG
	125	 291.7673	 6.5241	 151.0	 -87.0	 1.05	 100.0	 1	 340.05	 0.0	 0.0	 0.0	 0.0	 0.0	 0.0	 0.0	 0.0	 0.0	 0.0	 0.0	 0.0; % COW
	126	 291.7032	 6.4893	 164.0	 -81.0	 1.05	 100.0	 1	 340.05	 0.0	 0.0	 0.0	 0.0	 0.0	 0.0	 0.0	 0.0	 0.0	 0.0	 0.0	 0.0; % NG
	128	 299.9062	 255.0	 255.0	 -79.0	 1.05	 100.0	 1	 750.0	 0.0	 0.0	 0.0	 0.0	 0.0	 0.0	 0.0	 0.0	 0.0	 0.0	 0.0	 0.0; % COW
	129	 300.3579	 255.0	 255.0	 -79.0	 1.05	 100.0	 1	 750.0	 0.0	 0.0	 0.0	 0.0	 0.0	 0.0	 0.0	 0.0	 0.0	 0.0	 0.0	 0.0; % COW
	131	 300.8971	 255.0	 255.0	 -79.0	 1.05	 100.0	 1	 750.0	 0.0	 0.0	 0.0	 0.0	 0.0	 0.0	 0.0	 0.0	 0.0	 0.0	 0.0	 0.0; % COW
	132	 300.2242	 255.0	 255.0	 -18.0	 1.05	 100.0	 1	 750.0	 0.0	 0.0	 0.0	 0.0	 0.0	 0.0	 0.0	 0.0	 0.0	 0.0	 0.0	 0.0; % COW
	134	 299.9039	 201.1937	 270.0	 -86.0	 1.05	 100.0	 1	 747.0	 0.0	 0.0	 0.0	 0.0	 0.0	 0.0	 0.0	 0.0	 0.0	 0.0	 0.0	 0.0; % COW
	135	 299.9061	 201.4642	 270.0	 -86.0	 1.05	 100.0	 1	 747.0	 0.0	 0.0	 0.0	 0.0	 0.0	 0.0	 0.0	 0.0	 0.0	 0.0	 0.0	 0.0; % COW
	137	 228.0	 69.4404	 88.0	 -50.0	 1.05	 100.0	 1	 228.0	 0.0	 0.0	 0.0	 0.0	 0.0	 0.0	 0.0	 0.0	 0.0	 0.0	 0.0	 0.0; % NG
	138	 228.0	 88.0	 88.0	 -50.0	 1.05	 100.0	 1	 228.0	 0.0	 0.0	 0.0	 0.0	 0.0	 0.0	 0.0	 0.0	 0.0	 0.0	 0.0	 0.0; % NG
	139	 228.0	 69.4065	 88.0	 -50.0	 1.05	 100.0	 1	 228.0	 0.0	 0.0	 0.0	 0.0	 0.0	 0.0	 0.0	 0.0	 0.0	 0.0	 0.0	 0.0; % NG
	140	 300.6296	 114.0	 114.0	 -88.0	 1.05	 100.0	 1	 388.5	 0.0	 0.0	 0.0	 0.0	 0.0	 0.0	 0.0	 0.0	 0.0	 0.0	 0.0	 0.0; % NG
	142	 308.8195	 254.4729	 386.0	 -211.0	 1.05	 100.0	 1	 892.5	 0.0	 0.0	 0.0	 0.0	 0.0	 0.0	 0.0	 0.0	 0.0	 0.0	 0.0	 0.0; % COW
	143	 308.8194	 254.4145	 385.0	 -204.0	 1.05	 100.0	 1	 892.5	 0.0	 0.0	 0.0	 0.0	 0.0	 0.0	 0.0	 0.0	 0.0	 0.0	 0.0	 0.0; % COW
	145	 230.25	 41.3919	 72.0	 -48.0	 1.05	 100.0	 1	 230.25	 0.0	 0.0	 0.0	 0.0	 0.0	 0.0	 0.0	 0.0	 0.0	 0.0	 0.0	 0.0; % COW
	146	 230.25	 44.9264	 72.0	 -48.0	 1.05	 100.0	 1	 230.25	 0.0	 0.0	 0.0	 0.0	 0.0	 0.0	 0.0	 0.0	 0.0	 0.0	 0.0	 0.0; % NG
	147	 230.25	 44.9264	 72.0	 -48.0	 1.05	 100.0	 1	 230.25	 0.0	 0.0	 0.0	 0.0	 0.0	 0.0	 0.0	 0.0	 0.0	 0.0	 0.0	 0.0; % NG
	148	 230.25	 43.0574	 72.0	 -48.0	 1.05	 100.0	 1	 230.25	 0.0	 0.0	 0.0	 0.0	 0.0	 0.0	 0.0	 0.0	 0.0	 0.0	 0.0	 0.0; % NG
	150	 230.25	 43.4075	 72.0	 -48.0	 1.05	 100.0	 1	 230.25	 0.0	 0.0	 0.0	 0.0	 0.0	 0.0	 0.0	 0.0	 0.0	 0.0	 0.0	 0.0; % NG
	151	 230.25	 41.3691	 72.0	 -48.0	 1.05	 100.0	 1	 230.25	 0.0	 0.0	 0.0	 0.0	 0.0	 0.0	 0.0	 0.0	 0.0	 0.0	 0.0	 0.0; % NG
	152	 230.25	 43.4075	 72.0	 -48.0	 1.05	 100.0	 1	 230.25	 0.0	 0.0	 0.0	 0.0	 0.0	 0.0	 0.0	 0.0	 0.0	 0.0	 0.0	 0.0; % NG
	153	 230.25	 43.3885	 72.0	 -48.0	 1.05	 100.0	 1	 230.25	 0.0	 0.0	 0.0	 0.0	 0.0	 0.0	 0.0	 0.0	 0.0	 0.0	 0.0	 0.0; % NG
	154	 279.996	 93.7154	 192.0	 -114.0	 1.05	 100.0	 1	 485.25	 0.0	 0.0	 0.0	 0.0	 0.0	 0.0	 0.0	 0.0	 0.0	 0.0	 0.0	 0.0; % COW
	155	 280.0471	 96.5447	 192.0	 -114.0	 1.05	 100.0	 1	 485.25	 0.0	 0.0	 0.0	 0.0	 0.0	 0.0	 0.0	 0.0	 0.0	 0.0	 0.0	 0.0; % COW
	156	 0.0	 0.0	 0.0	 0.0	 1.01	 100.0	 1	 0.0	 0.0	 0.0	 0.0	 0.0	 0.0	 0.0	 0.0	 0.0	 0.0	 0.0	 0.0	 0.0; % SYNC
	158	 0.0	 0.0	 0.0	 0.0	 0.99	 100.0	 1	 0.0	 0.0	 0.0	 0.0	 0.0	 0.0	 0.0	 0.0	 0.0	 0.0	 0.0	 0.0	 0.0; % SYNC
	159	 299.7712	 48.1379	 175.0	 -60.0	 1.05	 100.0	 1	 525.0	 0.0	 0.0	 0.0	 0.0	 0.0	 0.0	 0.0	 0.0	 0.0	 0.0	 0.0	 0.0; % NG
	161	 301.6298	 110.4841	 175.0	 -60.0	 1.05	 100.0	 1	 525.0	 0.0	 0.0	 0.0	 0.0	 0.0	 0.0	 0.0	 0.0	 0.0	 0.0	 0.0	 0.0; % NG
	162	 299.2064	 29.9328	 190.0	 -56.4	 1.05	 100.0	 1	 525.0	 0.0	 0.0	 0.0	 0.0	 0.0	 0.0	 0.0	 0.0	 0.0	 0.0	 0.0	 0.0; % NG
	164	 289.3071	 158.3805	 287.0	 -110.0	 1.05	 100.0	 1	 724.5	 0.0	 0.0	 0.0	 0.0	 0.0	 0.0	 0.0	 0.0	 0.0	 0.0	 0.0	 0.0; % NUC
	165	 289.2751	 154.3879	 252.0	 -107.0	 1.05	 100.0	 1	 754.5	 0.0	 0.0	 0.0	 0.0	 0.0	 0.0	 0.0	 0.0	 0.0	 0.0	 0.0	 0.0; % NG
	166	 289.3216	 160.2605	 252.0	 -107.0	 1.05	 100.0	 1	 754.5	 0.0	 0.0	 0.0	 0.0	 0.0	 0.0	 0.0	 0.0	 0.0	 0.0	 0.0	 0.0; % COW
	167	 289.3064	 158.2901	 287.0	 -110.0	 1.05	 100.0	 1	 724.5	 0.0	 0.0	 0.0	 0.0	 0.0	 0.0	 0.0	 0.0	 0.0	 0.0	 0.0	 0.0; % COW
	169	 293.3221	 15.197	 182.0	 -85.0	 1.05	 100.0	 1	 367.5	 0.0	 0.0	 0.0	 0.0	 0.0	 0.0	 0.0	 0.0	 0.0	 0.0	 0.0	 0.0; % NG
	170	 293.306	 15.0375	 179.0	 -83.0	 1.05	 100.0	 1	 367.5	 0.0	 0.0	 0.0	 0.0	 0.0	 0.0	 0.0	 0.0	 0.0	 0.0	 0.0	 0.0; % COW
	171	 293.3849	 15.8506	 176.0	 -83.0	 1.05	 100.0	 1	 367.5	 0.0	 0.0	 0.0	 0.0	 0.0	 0.0	 0.0	 0.0	 0.0	 0.0	 0.0	 0.0; % COW
	172	 293.9031	 24.5442	 178.0	 -80.0	 1.05	 100.0	 1	 367.5	 0.0	 0.0	 0.0	 0.0	 0.0	 0.0	 0.0	 0.0	 0.0	 0.0	 0.0	 0.0; % NG
	174	 291.4693	 143.7738	 220.0	 -124.0	 1.05	 100.0	 1	 517.5	 0.0	 0.0	 0.0	 0.0	 0.0	 0.0	 0.0	 0.0	 0.0	 0.0	 0.0	 0.0; % NG
	175	 291.4692	 143.7552	 220.0	 -124.0	 1.05	 100.0	 1	 517.5	 0.0	 0.0	 0.0	 0.0	 0.0	 0.0	 0.0	 0.0	 0.0	 0.0	 0.0	 0.0; % COW
	176	 291.4688	 143.6918	 220.0	 -124.0	 1.05	 100.0	 1	 517.5	 0.0	 0.0	 0.0	 0.0	 0.0	 0.0	 0.0	 0.0	 0.0	 0.0	 0.0	 0.0; % COW
	177	 291.469	 143.7179	 221.0	 -124.0	 1.05	 100.0	 1	 517.5	 0.0	 0.0	 0.0	 0.0	 0.0	 0.0	 0.0	 0.0	 0.0	 0.0	 0.0	 0.0; % COW
	178	 304.2646	 75.1717	 91.0	 -62.0	 1.05	 100.0	 1	 349.5	 0.0	 0.0	 0.0	 0.0	 0.0	 0.0	 0.0	 0.0	 0.0	 0.0	 0.0	 0.0; % NG
	179	 304.2646	 75.1717	 91.0	 -62.0	 1.05	 100.0	 1	 349.5	 0.0	 0.0	 0.0	 0.0	 0.0	 0.0	 0.0	 0.0	 0.0	 0.0	 0.0	 0.0; % COW
	180	 304.4259	 83.6778	 119.0	 -73.0	 1.05	 100.0	 1	 426.0	 0.0	 0.0	 0.0	 0.0	 0.0	 0.0	 0.0	 0.0	 0.0	 0.0	 0.0	 0.0; % NG
	182	 0.0	 0.0	 0.0	 0.0	 1.01	 100.0	 1	 0.0	 0.0	 0.0	 0.0	 0.0	 0.0	 0.0	 0.0	 0.0	 0.0	 0.0	 0.0	 0.0; % SYNC
	184	 253.5	 36.5084	 103.0	 -55.0	 1.05	 100.0	 1	 253.5	 0.0	 0.0	 0.0	 0.0	 0.0	 0.0	 0.0	 0.0	 0.0	 0.0	 0.0	 0.0; % NG
	185	 253.5	 36.5034	 96.0	 -59.0	 1.05	 100.0	 1	 253.5	 0.0	 0.0	 0.0	 0.0	 0.0	 0.0	 0.0	 0.0	 0.0	 0.0	 0.0	 0.0; % NG
	186	 253.5	 38.7953	 94.0	 -60.0	 1.05	 100.0	 1	 253.5	 0.0	 0.0	 0.0	 0.0	 0.0	 0.0	 0.0	 0.0	 0.0	 0.0	 0.0	 0.0; % NG
	187	 281.8467	 71.7604	 164.0	 -91.0	 1.05	 100.0	 1	 393.0	 0.0	 0.0	 0.0	 0.0	 0.0	 0.0	 0.0	 0.0	 0.0	 0.0	 0.0	 0.0; % COW
	188	 304.7504	 94.0	 94.0	 -61.0	 1.05	 100.0	 1	 345.0	 0.0	 0.0	 0.0	 0.0	 0.0	 0.0	 0.0	 0.0	 0.0	 0.0	 0.0	 0.0; % NG
	189	 304.7504	 99.4157	 103.0	 -57.0	 1.05	 100.0	 1	 345.0	 0.0	 0.0	 0.0	 0.0	 0.0	 0.0	 0.0	 0.0	 0.0	 0.0	 0.0	 0.0; % NG
	190	 304.9144	 110.5462	 154.0	 -81.0	 1.05	 100.0	 1	 435.0	 0.0	 0.0	 0.0	 0.0	 0.0	 0.0	 0.0	 0.0	 0.0	 0.0	 0.0	 0.0; % NG
	191	 261.0	 35.9866	 94.0	 -57.0	 1.05	 100.0	 1	 261.0	 0.0	 0.0	 0.0	 0.0	 0.0	 0.0	 0.0	 0.0	 0.0	 0.0	 0.0	 0.0; % NG
	192	 261.0	 35.9817	 94.0	 -57.0	 1.05	 100.0	 1	 261.0	 0.0	 0.0	 0.0	 0.0	 0.0	 0.0	 0.0	 0.0	 0.0	 0.0	 0.0	 0.0; % NG
	193	 252.0	 36.786	 107.0	 -57.0	 1.05	 100.0	 1	 252.0	 0.0	 0.0	 0.0	 0.0	 0.0	 0.0	 0.0	 0.0	 0.0	 0.0	 0.0	 0.0; % COW
	195	 290.9585	 98.3396	 225.6	 -123.0	 1.05	 100.0	 1	 373.5	 0.0	 0.0	 0.0	 0.0	 0.0	 0.0	 0.0	 0.0	 0.0	 0.0	 0.0	 0.0; % NG
	196	 290.9585	 98.3396	 225.6	 -123.0	 1.05	 100.0	 1	 373.5	 0.0	 0.0	 0.0	 0.0	 0.0	 0.0	 0.0	 0.0	 0.0	 0.0	 0.0	 0.0; % NG
	197	 290.9585	 98.3396	 229.4	 -117.6	 1.05	 100.0	 1	 375.0	 0.0	 0.0	 0.0	 0.0	 0.0	 0.0	 0.0	 0.0	 0.0	 0.0	 0.0	 0.0; % NG
	199	 294.2835	 134.29	 134.29	 -95.64	 1.05	 100.0	 1	 400.05	 0.0	 0.0	 0.0	 0.0	 0.0	 0.0	 0.0	 0.0	 0.0	 0.0	 0.0	 0.0; % NG
	200	 294.2835	 134.29	 134.29	 -95.64	 1.05	 100.0	 1	 400.05	 0.0	 0.0	 0.0	 0.0	 0.0	 0.0	 0.0	 0.0	 0.0	 0.0	 0.0	 0.0; % COW
	201	 294.2835	 144.5202	 162.75	 -87.76	 1.05	 100.0	 1	 399.9	 0.0	 0.0	 0.0	 0.0	 0.0	 0.0	 0.0	 0.0	 0.0	 0.0	 0.0	 0.0; % NG
	203	 306.6734	 113.6624	 138.0	 -93.0	 1.05	 100.0	 1	 406.0	 0.0	 0.0	 0.0	 0.0	 0.0	 0.0	 0.0	 0.0	 0.0	 0.0	 0.0	 0.0; % NG
	204	 306.6734	 113.6624	 138.0	 -93.0	 1.05	 100.0	 1	 406.0	 0.0	 0.0	 0.0	 0.0	 0.0	 0.0	 0.0	 0.0	 0.0	 0.0	 0.0	 0.0; % COW
	205	 306.6734	 113.6624	 155.0	 -85.0	 1.05	 100.0	 1	 406.0	 0.0	 0.0	 0.0	 0.0	 0.0	 0.0	 0.0	 0.0	 0.0	 0.0	 0.0	 0.0; % COW
	206	 305.9258	 17.3902	 209.0	 -145.2	 1.05	 100.0	 1	 633.0	 0.0	 0.0	 0.0	 0.0	 0.0	 0.0	 0.0	 0.0	 0.0	 0.0	 0.0	 0.0; % NG
	208	 306.7893	 144.3306	 298.72	 -188.66	 1.05	 100.0	 1	 780.0	 0.0	 0.0	 0.0	 0.0	 0.0	 0.0	 0.0	 0.0	 0.0	 0.0	 0.0	 0.0; % COW
	209	 48.45	 0.7791	 16.9	 -9.8	 1.05	 100.0	 1	 48.45	 0.0	 0.0	 0.0	 0.0	 0.0	 0.0	 0.0	 0.0	 0.0	 0.0	 0.0	 0.0; % NG
	211	 291.9105	 35.7986	 189.9	 -145.1	 1.05	 100.0	 1	 385.5	 0.0	 0.0	 0.0	 0.0	 0.0	 0.0	 0.0	 0.0	 0.0	 0.0	 0.0	 0.0; % COW
	212	 291.9105	 35.7986	 196.2	 -143.8	 1.05	 100.0	 1	 385.5	 0.0	 0.0	 0.0	 0.0	 0.0	 0.0	 0.0	 0.0	 0.0	 0.0	 0.0	 0.0; % COW
	213	 292.0336	 39.0941	 313.0	 -183.5	 1.05	 100.0	 1	 549.0	 0.0	 0.0	 0.0	 0.0	 0.0	 0.0	 0.0	 0.0	 0.0	 0.0	 0.0	 0.0; % NG
	215	 302.0171	 47.3157	 166.0	 -93.0	 1.05	 100.0	 1	 409.5	 0.0	 0.0	 0.0	 0.0	 0.0	 0.0	 0.0	 0.0	 0.0	 0.0	 0.0	 0.0; % NG
	216	 302.0171	 47.3157	 155.0	 -94.0	 1.05	 100.0	 1	 409.5	 0.0	 0.0	 0.0	 0.0	 0.0	 0.0	 0.0	 0.0	 0.0	 0.0	 0.0	 0.0; % NG
	217	 302.0171	 47.3157	 159.0	 -89.0	 1.05	 100.0	 1	 388.5	 0.0	 0.0	 0.0	 0.0	 0.0	 0.0	 0.0	 0.0	 0.0	 0.0	 0.0	 0.0; % NG
	219	 301.3644	 93.8676	 167.0	 -106.0	 1.05	 100.0	 1	 371.5	 0.0	 0.0	 0.0	 0.0	 0.0	 0.0	 0.0	 0.0	 0.0	 0.0	 0.0	 0.0; % NG
	220	 301.3644	 93.8676	 167.0	 -106.0	 1.05	 100.0	 1	 371.5	 0.0	 0.0	 0.0	 0.0	 0.0	 0.0	 0.0	 0.0	 0.0	 0.0	 0.0	 0.0; % COW
	221	 301.3644	 93.8676	 196.0	 -94.0	 1.05	 100.0	 1	 371.5	 0.0	 0.0	 0.0	 0.0	 0.0	 0.0	 0.0	 0.0	 0.0	 0.0	 0.0	 0.0; % NG
	222	 290.4957	 123.4471	 220.0	 -136.73	 1.05	 100.0	 1	 592.5	 0.0	 0.0	 0.0	 0.0	 0.0	 0.0	 0.0	 0.0	 0.0	 0.0	 0.0	 0.0; % NG
	224	 284.2307	 38.6543	 248.68	 -139.23	 1.05	 100.0	 1	 550.5	 0.0	 0.0	 0.0	 0.0	 0.0	 0.0	 0.0	 0.0	 0.0	 0.0	 0.0	 0.0; % NG
	225	 284.2307	 38.6543	 248.68	 -139.23	 1.05	 100.0	 1	 550.5	 0.0	 0.0	 0.0	 0.0	 0.0	 0.0	 0.0	 0.0	 0.0	 0.0	 0.0	 0.0; % COW
	226	 284.2307	 38.6543	 248.68	 -139.23	 1.05	 100.0	 1	 550.5	 0.0	 0.0	 0.0	 0.0	 0.0	 0.0	 0.0	 0.0	 0.0	 0.0	 0.0	 0.0; % COW
	228	 316.6388	 43.1765	 250.0	 -138.0	 1.02	 100.0	 1	 637.5	 0.0	 0.0	 0.0	 0.0	 0.0	 0.0	 0.0	 0.0	 0.0	 0.0	 0.0	 0.0; % NG
	229	 316.6388	 43.1723	 250.0	 -138.0	 1.02	 100.0	 1	 637.5	 0.0	 0.0	 0.0	 0.0	 0.0	 0.0	 0.0	 0.0	 0.0	 0.0	 0.0	 0.0; % COW
	231	 304.9596	 -26.5535	 250.0	 -140.0	 1.05	 100.0	 1	 600.0	 0.0	 0.0	 0.0	 0.0	 0.0	 0.0	 0.0	 0.0	 0.0	 0.0	 0.0	 0.0; % COW
	232	 304.9596	 -26.5535	 250.0	 -140.0	 1.05	 100.0	 1	 600.0	 0.0	 0.0	 0.0	 0.0	 0.0	 0.0	 0.0	 0.0	 0.0	 0.0	 0.0	 0.0; % COW
	234	 66.0	 5.6624	 25.0	 -14.0	 1.05	 100.0	 1	 66.0	 0.0	 0.0	 0.0	 0.0	 0.0	 0.0	 0.0	 0.0	 0.0	 0.0	 0.0	 0.0; % PEL
	235	 66.0	 5.6624	 25.0	 -14.0	 1.05	 100.0	 1	 66.0	 0.0	 0.0	 0.0	 0.0	 0.0	 0.0	 0.0	 0.0	 0.0	 0.0	 0.0	 0.0; % PEL
	236	 67.5	 5.6624	 25.0	 -14.0	 1.05	 100.0	 1	 67.5	 0.0	 0.0	 0.0	 0.0	 0.0	 0.0	 0.0	 0.0	 0.0	 0.0	 0.0	 0.0; % NG
	237	 67.5	 5.6624	 25.0	 -14.0	 1.05	 100.0	 1	 67.5	 0.0	 0.0	 0.0	 0.0	 0.0	 0.0	 0.0	 0.0	 0.0	 0.0	 0.0	 0.0; % PEL
	238	 67.5	 5.6624	 25.0	 -14.0	 1.05	 100.0	 1	 67.5	 0.0	 0.0	 0.0	 0.0	 0.0	 0.0	 0.0	 0.0	 0.0	 0.0	 0.0	 0.0; % PEL
	239	 67.5	 5.6624	 25.0	 -14.0	 1.05	 100.0	 1	 67.5	 0.0	 0.0	 0.0	 0.0	 0.0	 0.0	 0.0	 0.0	 0.0	 0.0	 0.0	 0.0; % NG
	241	 282.6396	 57.3225	 158.63	 -90.39	 1.05	 100.0	 1	 363.75	 0.0	 0.0	 0.0	 0.0	 0.0	 0.0	 0.0	 0.0	 0.0	 0.0	 0.0	 0.0; % NG
	242	 282.6396	 57.3225	 158.63	 -90.39	 1.05	 100.0	 1	 363.75	 0.0	 0.0	 0.0	 0.0	 0.0	 0.0	 0.0	 0.0	 0.0	 0.0	 0.0	 0.0; % NG
	243	 175.5	 23.3416	 74.57	 -37.8	 1.05	 100.0	 1	 175.5	 0.0	 0.0	 0.0	 0.0	 0.0	 0.0	 0.0	 0.0	 0.0	 0.0	 0.0	 0.0; % NG
	244	 175.5	 23.3416	 74.57	 -37.8	 1.05	 100.0	 1	 175.5	 0.0	 0.0	 0.0	 0.0	 0.0	 0.0	 0.0	 0.0	 0.0	 0.0	 0.0	 0.0; % NG
	249	 310.0921	 50.1858	 194.0	 -91.0	 1.05	 100.0	 1	 342.0	 0.0	 0.0	 0.0	 0.0	 0.0	 0.0	 0.0	 0.0	 0.0	 0.0	 0.0	 0.0; % NG
	251	 310.2737	 31.6413	 180.0	 -86.0	 1.05	 100.0	 1	 363.0	 0.0	 0.0	 0.0	 0.0	 0.0	 0.0	 0.0	 0.0	 0.0	 0.0	 0.0	 0.0; % NG
	253	 90.0	 24.2725	 41.0	 -21.0	 1.05	 100.0	 1	 90.0	 0.0	 0.0	 0.0	 0.0	 0.0	 0.0	 0.0	 0.0	 0.0	 0.0	 0.0	 0.0; % NG
	254	 253.5	 51.6601	 100.0	 -57.0	 1.05	 100.0	 1	 253.5	 0.0	 0.0	 0.0	 0.0	 0.0	 0.0	 0.0	 0.0	 0.0	 0.0	 0.0	 0.0; % COW
	256	 55.5	 3.1319	 28.0	 -15.0	 1.05	 100.0	 1	 55.5	 0.0	 0.0	 0.0	 0.0	 0.0	 0.0	 0.0	 0.0	 0.0	 0.0	 0.0	 0.0; % PEL
	257	 55.5	 3.0633	 24.0	 -16.0	 1.05	 100.0	 1	 55.5	 0.0	 0.0	 0.0	 0.0	 0.0	 0.0	 0.0	 0.0	 0.0	 0.0	 0.0	 0.0; % NG
	258	 55.5	 3.1319	 24.0	 -16.0	 1.05	 100.0	 1	 55.5	 0.0	 0.0	 0.0	 0.0	 0.0	 0.0	 0.0	 0.0	 0.0	 0.0	 0.0	 0.0; % NG
	259	 66.0	 4.1681	 34.0	 -17.0	 1.05	 100.0	 1	 66.0	 0.0	 0.0	 0.0	 0.0	 0.0	 0.0	 0.0	 0.0	 0.0	 0.0	 0.0	 0.0; % PEL
	261	 307.3149	 105.485	 331.5	 -147.7	 1.05	 100.0	 1	 630.0	 0.0	 0.0	 0.0	 0.0	 0.0	 0.0	 0.0	 0.0	 0.0	 0.0	 0.0	 0.0; % NUC
	263	 105.0	 34.8232	 44.4	 -27.9	 1.05	 100.0	 1	 105.0	 0.0	 0.0	 0.0	 0.0	 0.0	 0.0	 0.0	 0.0	 0.0	 0.0	 0.0	 0.0; % NG
	264	 105.0	 34.0152	 44.4	 -27.9	 1.05	 100.0	 1	 105.0	 0.0	 0.0	 0.0	 0.0	 0.0	 0.0	 0.0	 0.0	 0.0	 0.0	 0.0	 0.0; % NG
	265	 105.0	 33.9943	 49.0	 -23.5	 1.05	 100.0	 1	 105.0	 0.0	 0.0	 0.0	 0.0	 0.0	 0.0	 0.0	 0.0	 0.0	 0.0	 0.0	 0.0; % NG
	270	 304.2017	 137.665	 273.4	 -140.7	 1.05	 100.0	 1	 585.0	 0.0	 0.0	 0.0	 0.0	 0.0	 0.0	 0.0	 0.0	 0.0	 0.0	 0.0	 0.0; % COW
	272	 255.0	 19.7512	 70.0	 -51.0	 1.05	 100.0	 1	 255.0	 0.0	 0.0	 0.0	 0.0	 0.0	 0.0	 0.0	 0.0	 0.0	 0.0	 0.0	 0.0; % NG
	273	 112.5	 10.4133	 33.0	 -23.0	 1.05	 100.0	 1	 112.5	 0.0	 0.0	 0.0	 0.0	 0.0	 0.0	 0.0	 0.0	 0.0	 0.0	 0.0	 0.0; % NG
	275	 181.5	 28.71	 39.8	 -39.8	 1.05	 100.0	 1	 181.5	 0.0	 0.0	 0.0	 0.0	 0.0	 0.0	 0.0	 0.0	 0.0	 0.0	 0.0	 0.0; % COW
	276	 181.5	 28.71	 39.8	 -39.8	 1.05	 100.0	 1	 181.5	 0.0	 0.0	 0.0	 0.0	 0.0	 0.0	 0.0	 0.0	 0.0	 0.0	 0.0	 0.0; % NG
...
];

%% generator cost data
%	2	startup	shutdown	n	c(n-1)	...	c0
mpc.gencost = [
	2	 0.0	 0.0	 3	   0.000000	   0.898482	   0.000000; % COW
	2	 0.0	 0.0	 3	   0.000000	   0.585347	   0.000000; % COW
	2	 0.0	 0.0	 3	   0.000000	   0.607890	   0.000000; % COW
	2	 0.0	 0.0	 3	   0.000000	   0.674304	   0.000000; % COW
	2	 0.0	 0.0	 3	   0.000000	   0.903383	   0.000000; % NG
	2	 0.0	 0.0	 3	   0.000000	   1.215509	   0.000000; % NG
	2	 0.0	 0.0	 3	   0.000000	   0.780735	   0.000000; % NG
	2	 0.0	 0.0	 3	   0.000000	   1.098166	   0.000000; % NG
	2	 0.0	 0.0	 3	   0.000000	   1.012987	   0.000000; % NG
	2	 0.0	 0.0	 3	   0.000000	   0.376585	   0.000000; % NG
	2	 0.0	 0.0	 3	   0.000000	   0.758006	   0.000000; % COW
	2	 0.0	 0.0	 3	   0.000000	   1.058542	   0.000000; % COW
	2	 0.0	 0.0	 3	   0.000000	   0.904568	   0.000000; % COW
	2	 0.0	 0.0	 3	   0.000000	   0.823837	   0.000000; % COW
	2	 0.0	 0.0	 3	   0.000000	   0.339756	   0.000000; % COW
	2	 0.0	 0.0	 3	   0.000000	   0.915036	   0.000000; % NG
	2	 0.0	 0.0	 3	   0.000000	   0.812762	   0.000000; % COW
	2	 0.0	 0.0	 3	   0.000000	   0.761030	   0.000000; % COW
	2	 0.0	 0.0	 3	   0.000000	   0.498111	   0.000000; % COW
	2	 0.0	 0.0	 3	   0.000000	   0.217329	   0.000000; % NUC
	2	 0.0	 0.0	 3	   0.000000	   0.780291	   0.000000; % COW
	2	 0.0	 0.0	 3	   0.000000	   0.821867	   0.000000; % NG
	2	 0.0	 0.0	 3	   0.000000	   1.004045	   0.000000; % NG
	2	 0.0	 0.0	 3	   0.000000	   1.311846	   0.000000; % NG
	2	 0.0	 0.0	 3	   0.000000	   0.064020	   0.000000; % COW
	2	 0.0	 0.0	 3	   0.000000	   1.032391	   0.000000; % NG
	2	 0.0	 0.0	 3	   0.000000	   0.000000	   0.000000; % SYNC
	2	 0.0	 0.0	 3	   0.000000	   0.202425	   0.000000; % NUC
	2	 0.0	 0.0	 3	   0.000000	   0.880421	   0.000000; % COW
	2	 0.0	 0.0	 3	   0.000000	   0.176252	   0.000000; % NUC
	2	 0.0	 0.0	 3	   0.000000	   1.000682	   0.000000; % COW
	2	 0.0	 0.0	 3	   0.000000	   0.681513	   0.000000; % COW
	2	 0.0	 0.0	 3	   0.000000	   0.959303	   0.000000; % COW
	2	 0.0	 0.0	 3	   0.000000	   1.156924	   0.000000; % NG
	2	 0.0	 0.0	 3	   0.000000	   0.807262	   0.000000; % COW
	2	 0.0	 0.0	 3	   0.000000	   0.704894	   0.000000; % COW
	2	 0.0	 0.0	 3	   0.000000	   0.826776	   0.000000; % COW
	2	 0.0	 0.0	 3	   0.000000	   0.885767	   0.000000; % COW
	2	 0.0	 0.0	 3	   0.000000	   0.651064	   0.000000; % COW
	2	 0.0	 0.0	 3	   0.000000	   0.000000	   0.000000; % SYNC
	2	 0.0	 0.0	 3	   0.000000	   0.000000	   0.000000; % SYNC
	2	 0.0	 0.0	 3	   0.000000	   0.235151	   0.000000; % NUC
	2	 0.0	 0.0	 3	   0.000000	   0.205047	   0.000000; % NUC
	2	 0.0	 0.0	 3	   0.000000	   0.459256	   0.000000; % COW
	2	 0.0	 0.0	 3	   0.000000	   0.373840	   0.000000; % COW
	2	 0.0	 0.0	 3	   0.000000	   1.094623	   0.000000; % NG
	2	 0.0	 0.0	 3	   0.000000	   1.124969	   0.000000; % NG
	2	 0.0	 0.0	 3	   0.000000	   0.898978	   0.000000; % COW
	2	 0.0	 0.0	 3	   0.000000	   0.932138	   0.000000; % COW
	2	 0.0	 0.0	 3	   0.000000	   0.937902	   0.000000; % COW
	2	 0.0	 0.0	 3	   0.000000	   0.685287	   0.000000; % COW
	2	 0.0	 0.0	 3	   0.000000	   0.000000	   0.000000; % SYNC
	2	 0.0	 0.0	 3	   0.000000	   0.000000	   0.000000; % SYNC
	2	 0.0	 0.0	 3	   0.000000	   0.000000	   0.000000; % SYNC
	2	 0.0	 0.0	 3	   0.000000	   0.000000	   0.000000; % SYNC
	2	 0.0	 0.0	 3	   0.000000	   0.546105	   0.000000; % COW
	2	 0.0	 0.0	 3	   0.000000	   0.205953	   0.000000; % NUC
	2	 0.0	 0.0	 3	   0.000000	   0.239746	   0.000000; % NUC
	2	 0.0	 0.0	 3	   0.000000	   0.184243	   0.000000; % NUC
	2	 0.0	 0.0	 3	   0.000000	   0.969214	   0.000000; % COW
	2	 0.0	 0.0	 3	   0.000000	   0.744628	   0.000000; % COW
	2	 0.0	 0.0	 3	   0.000000	   0.622648	   0.000000; % COW
	2	 0.0	 0.0	 3	   0.000000	   0.682068	   0.000000; % COW
	2	 0.0	 0.0	 3	   0.000000	   0.922981	   0.000000; % COW
	2	 0.0	 0.0	 3	   0.000000	   6.806096	   0.000000; % PEL
	2	 0.0	 0.0	 3	   0.000000	   1.341472	   0.000000; % NG
	2	 0.0	 0.0	 3	   0.000000	   0.844213	   0.000000; % NG
	2	 0.0	 0.0	 3	   0.000000	   0.824209	   0.000000; % NG
	2	 0.0	 0.0	 3	   0.000000	   1.278663	   0.000000; % NG
	2	 0.0	 0.0	 3	   0.000000	   0.795886	   0.000000; % NG
	2	 0.0	 0.0	 3	   0.000000	   0.530394	   0.000000; % COW
	2	 0.0	 0.0	 3	   0.000000	   1.080409	   0.000000; % NG
	2	 0.0	 0.0	 3	   0.000000	   1.315686	   0.000000; % NG
	2	 0.0	 0.0	 3	   0.000000	   1.005280	   0.000000; % NG
	2	 0.0	 0.0	 3	   0.000000	   0.586682	   0.000000; % COW
	2	 0.0	 0.0	 3	   0.000000	   0.717950	   0.000000; % COW
	2	 0.0	 0.0	 3	   0.000000	   1.510823	   0.000000; % NG
	2	 0.0	 0.0	 3	   0.000000	   0.820835	   0.000000; % NG
	2	 0.0	 0.0	 3	   0.000000	   0.867804	   0.000000; % COW
	2	 0.0	 0.0	 3	   0.000000	   0.421915	   0.000000; % COW
	2	 0.0	 0.0	 3	   0.000000	   0.701246	   0.000000; % COW
	2	 0.0	 0.0	 3	   0.000000	   0.969754	   0.000000; % COW
	2	 0.0	 0.0	 3	   0.000000	   1.032221	   0.000000; % NG
	2	 0.0	 0.0	 3	   0.000000	   1.175166	   0.000000; % NG
	2	 0.0	 0.0	 3	   0.000000	   1.137019	   0.000000; % NG
	2	 0.0	 0.0	 3	   0.000000	   1.189940	   0.000000; % COW
	2	 0.0	 0.0	 3	   0.000000	   0.647004	   0.000000; % COW
	2	 0.0	 0.0	 3	   0.000000	   0.000000	   0.000000; % SYNC
	2	 0.0	 0.0	 3	   0.000000	   1.220124	   0.000000; % NG
	2	 0.0	 0.0	 3	   0.000000	   0.605520	   0.000000; % COW
	2	 0.0	 0.0	 3	   0.000000	   0.909336	   0.000000; % NG
	2	 0.0	 0.0	 3	   0.000000	   0.802491	   0.000000; % COW
	2	 0.0	 0.0	 3	   0.000000	   0.899743	   0.000000; % COW
	2	 0.0	 0.0	 3	   0.000000	   0.413699	   0.000000; % COW
	2	 0.0	 0.0	 3	   0.000000	   0.596709	   0.000000; % COW
	2	 0.0	 0.0	 3	   0.000000	   1.281688	   0.000000; % COW
	2	 0.0	 0.0	 3	   0.000000	   0.989059	   0.000000; % COW
	2	 0.0	 0.0	 3	   0.000000	   0.696436	   0.000000; % NG
	2	 0.0	 0.0	 3	   0.000000	   1.237479	   0.000000; % NG
	2	 0.0	 0.0	 3	   0.000000	   1.385876	   0.000000; % NG
	2	 0.0	 0.0	 3	   0.000000	   0.767049	   0.000000; % NG
	2	 0.0	 0.0	 3	   0.000000	   0.885530	   0.000000; % COW
	2	 0.0	 0.0	 3	   0.000000	   0.758721	   0.000000; % COW
	2	 0.0	 0.0	 3	   0.000000	   0.373718	   0.000000; % COW
	2	 0.0	 0.0	 3	   0.000000	   1.337796	   0.000000; % NG
	2	 0.0	 0.0	 3	   0.000000	   1.301235	   0.000000; % NG
	2	 0.0	 0.0	 3	   0.000000	   1.023471	   0.000000; % NG
	2	 0.0	 0.0	 3	   0.000000	   1.229958	   0.000000; % NG
	2	 0.0	 0.0	 3	   0.000000	   1.172916	   0.000000; % NG
	2	 0.0	 0.0	 3	   0.000000	   0.997054	   0.000000; % NG
	2	 0.0	 0.0	 3	   0.000000	   0.896492	   0.000000; % NG
	2	 0.0	 0.0	 3	   0.000000	   0.912338	   0.000000; % COW
	2	 0.0	 0.0	 3	   0.000000	   0.419944	   0.000000; % COW
	2	 0.0	 0.0	 3	   0.000000	   0.000000	   0.000000; % SYNC
	2	 0.0	 0.0	 3	   0.000000	   0.000000	   0.000000; % SYNC
	2	 0.0	 0.0	 3	   0.000000	   0.570651	   0.000000; % NG
	2	 0.0	 0.0	 3	   0.000000	   0.843811	   0.000000; % NG
	2	 0.0	 0.0	 3	   0.000000	   1.042634	   0.000000; % NG
	2	 0.0	 0.0	 3	   0.000000	   0.203996	   0.000000; % NUC
	2	 0.0	 0.0	 3	   0.000000	   1.274942	   0.000000; % NG
	2	 0.0	 0.0	 3	   0.000000	   0.735272	   0.000000; % COW
	2	 0.0	 0.0	 3	   0.000000	   1.014045	   0.000000; % COW
	2	 0.0	 0.0	 3	   0.000000	   1.068760	   0.000000; % NG
	2	 0.0	 0.0	 3	   0.000000	   0.614838	   0.000000; % COW
	2	 0.0	 0.0	 3	   0.000000	   1.125620	   0.000000; % COW
	2	 0.0	 0.0	 3	   0.000000	   0.790117	   0.000000; % NG
	2	 0.0	 0.0	 3	   0.000000	   0.841937	   0.000000; % NG
	2	 0.0	 0.0	 3	   0.000000	   0.954047	   0.000000; % COW
	2	 0.0	 0.0	 3	   0.000000	   1.096160	   0.000000; % COW
	2	 0.0	 0.0	 3	   0.000000	   1.179625	   0.000000; % COW
	2	 0.0	 0.0	 3	   0.000000	   1.150123	   0.000000; % NG
	2	 0.0	 0.0	 3	   0.000000	   0.651942	   0.000000; % COW
	2	 0.0	 0.0	 3	   0.000000	   1.072560	   0.000000; % NG
	2	 0.0	 0.0	 3	   0.000000	   0.000000	   0.000000; % SYNC
	2	 0.0	 0.0	 3	   0.000000	   0.855426	   0.000000; % NG
	2	 0.0	 0.0	 3	   0.000000	   0.839542	   0.000000; % NG
	2	 0.0	 0.0	 3	   0.000000	   1.048974	   0.000000; % NG
	2	 0.0	 0.0	 3	   0.000000	   0.691272	   0.000000; % COW
	2	 0.0	 0.0	 3	   0.000000	   1.110159	   0.000000; % NG
	2	 0.0	 0.0	 3	   0.000000	   0.852396	   0.000000; % NG
	2	 0.0	 0.0	 3	   0.000000	   1.091702	   0.000000; % NG
	2	 0.0	 0.0	 3	   0.000000	   0.764052	   0.000000; % NG
	2	 0.0	 0.0	 3	   0.000000	   1.304240	   0.000000; % NG
	2	 0.0	 0.0	 3	   0.000000	   0.939583	   0.000000; % COW
	2	 0.0	 0.0	 3	   0.000000	   0.889511	   0.000000; % NG
	2	 0.0	 0.0	 3	   0.000000	   0.934687	   0.000000; % NG
	2	 0.0	 0.0	 3	   0.000000	   1.161538	   0.000000; % NG
	2	 0.0	 0.0	 3	   0.000000	   0.976561	   0.000000; % NG
	2	 0.0	 0.0	 3	   0.000000	   0.941076	   0.000000; % COW
	2	 0.0	 0.0	 3	   0.000000	   1.071590	   0.000000; % NG
	2	 0.0	 0.0	 3	   0.000000	   1.391891	   0.000000; % NG
	2	 0.0	 0.0	 3	   0.000000	   0.838586	   0.000000; % COW
	2	 0.0	 0.0	 3	   0.000000	   0.746472	   0.000000; % COW
	2	 0.0	 0.0	 3	   0.000000	   1.135879	   0.000000; % NG
	2	 0.0	 0.0	 3	   0.000000	   0.774385	   0.000000; % COW
	2	 0.0	 0.0	 3	   0.000000	   0.962980	   0.000000; % NG
	2	 0.0	 0.0	 3	   0.000000	   0.782477	   0.000000; % COW
	2	 0.0	 0.0	 3	   0.000000	   1.023100	   0.000000; % COW
	2	 0.0	 0.0	 3	   0.000000	   1.115150	   0.000000; % NG
	2	 0.0	 0.0	 3	   0.000000	   0.807797	   0.000000; % NG
	2	 0.0	 0.0	 3	   0.000000	   1.266850	   0.000000; % NG
	2	 0.0	 0.0	 3	   0.000000	   1.148854	   0.000000; % NG
	2	 0.0	 0.0	 3	   0.000000	   1.092357	   0.000000; % NG
	2	 0.0	 0.0	 3	   0.000000	   0.462197	   0.000000; % COW
	2	 0.0	 0.0	 3	   0.000000	   1.295953	   0.000000; % NG
	2	 0.0	 0.0	 3	   0.000000	   0.738441	   0.000000; % NG
	2	 0.0	 0.0	 3	   0.000000	   1.251987	   0.000000; % NG
	2	 0.0	 0.0	 3	   0.000000	   0.902950	   0.000000; % COW
	2	 0.0	 0.0	 3	   0.000000	   0.482116	   0.000000; % COW
	2	 0.0	 0.0	 3	   0.000000	   1.080973	   0.000000; % NG
	2	 0.0	 0.0	 3	   0.000000	   1.156155	   0.000000; % COW
	2	 0.0	 0.0	 3	   0.000000	   0.647612	   0.000000; % COW
	2	 0.0	 0.0	 3	   0.000000	   0.588263	   0.000000; % COW
	2	 0.0	 0.0	 3	   0.000000	   7.156827	   0.000000; % PEL
	2	 0.0	 0.0	 3	   0.000000	   6.122420	   0.000000; % PEL
	2	 0.0	 0.0	 3	   0.000000	   0.973149	   0.000000; % NG
	2	 0.0	 0.0	 3	   0.000000	   6.900700	   0.000000; % PEL
	2	 0.0	 0.0	 3	   0.000000	   7.074383	   0.000000; % PEL
	2	 0.0	 0.0	 3	   0.000000	   1.582361	   0.000000; % NG
	2	 0.0	 0.0	 3	   0.000000	   1.142341	   0.000000; % NG
	2	 0.0	 0.0	 3	   0.000000	   0.621009	   0.000000; % NG
	2	 0.0	 0.0	 3	   0.000000	   1.101401	   0.000000; % NG
	2	 0.0	 0.0	 3	   0.000000	   1.154538	   0.000000; % NG
	2	 0.0	 0.0	 3	   0.000000	   1.243232	   0.000000; % NG
	2	 0.0	 0.0	 3	   0.000000	   0.685081	   0.000000; % NG
	2	 0.0	 0.0	 3	   0.000000	   1.217400	   0.000000; % NG
	2	 0.0	 0.0	 3	   0.000000	   0.744269	   0.000000; % COW
	2	 0.0	 0.0	 3	   0.000000	   6.736145	   0.000000; % PEL
	2	 0.0	 0.0	 3	   0.000000	   1.076719	   0.000000; % NG
	2	 0.0	 0.0	 3	   0.000000	   0.964632	   0.000000; % NG
	2	 0.0	 0.0	 3	   0.000000	   6.861788	   0.000000; % PEL
	2	 0.0	 0.0	 3	   0.000000	   0.237815	   0.000000; % NUC
	2	 0.0	 0.0	 3	   0.000000	   0.977214	   0.000000; % NG
	2	 0.0	 0.0	 3	   0.000000	   0.640000	   0.000000; % NG
	2	 0.0	 0.0	 3	   0.000000	   0.885688	   0.000000; % NG
	2	 0.0	 0.0	 3	   0.000000	   0.836369	   0.000000; % COW
	2	 0.0	 0.0	 3	   0.000000	   1.011956	   0.000000; % NG
	2	 0.0	 0.0	 3	   0.000000	   1.058200	   0.000000; % NG
	2	 0.0	 0.0	 3	   0.000000	   0.968792	   0.000000; % COW
	2	 0.0	 0.0	 3	   0.000000	   0.738661	   0.000000; % NG
...
];

%% branch data
%	fbus	tbus	r	x	b	rateA	rateB	rateC	ratio	angle	status	angmin	angmax
mpc.branch = [
	1	 2	 0.00089	 0.02682	 0.0	 861	 861	 861	 0.9991	 0.0	 1	 -30.0	 30.0;
	1	 3	 0.00055	 0.027	 0.0	 1086	 1086	 1086	 0.9999	 0.0	 1	 -30.0	 30.0;
	1	 4	 0.0008	 0.02677	 0.0	 905	 905	 905	 0.9992	 0.0	 1	 -30.0	 30.0;
	5	 6	 0.00213	 0.11452	 0.0	 256	 256	 256	 1.0138	 0.0	 1	 -30.0	 30.0;
	5	 7	 0.00213	 0.11471	 0.0	 255	 255	 255	 1.0138	 0.0	 1	 -30.0	 30.0;
	8	 9	 0.00213	 0.11316	 0.0	 259	 259	 259	 1.013	 0.0	 1	 -30.0	 30.0;
	8	 10	 0.00206	 0.11458	 0.0	 255	 255	 255	 1.0139	 0.0	 1	 -30.0	 30.0;
	8	 11	 0.00206	 0.1149	 0.0	 255	 255	 255	 1.0139	 0.0	 1	 -30.0	 30.0;
	5	 12	 0.00194	 0.10912	 0.0	 268	 268	 268	 1.0138	 0.0	 1	 -30.0	 30.0;
	8	 13	 0.001	 0.08396	 0.0	 349	 349	 349	 1.0221	 0.0	 1	 -30.0	 30.0;
	14	 15	 0.0003	 0.02828	 0.0	 1037	 1037	 1037	 1.0282	 0.0	 1	 -30.0	 30.0;
	14	 16	 0.00048	 0.02805	 0.0	 1045	 1045	 1045	 1.0175	 0.0	 1	 -30.0	 30.0;
	14	 17	 0.00032	 0.02788	 0.0	 1052	 1052	 1052	 1.0261	 0.0	 1	 -30.0	 30.0;
	14	 18	 0.00035	 0.0278	 0.0	 1055	 1055	 1055	 1.0238	 0.0	 1	 -30.0	 30.0;
	19	 20	 0.0013	 0.06616	 0.0	 443	 443	 443	 1.0337	 0.0	 1	 -30.0	 30.0;
	19	 21	 0.0013	 0.06616	 0.0	 443	 443	 443	 1.0337	 0.0	 1	 -30.0	 30.0;
	19	 22	 0.0013	 0.06616	 0.0	 443	 443	 443	 1.0445	 0.0	 1	 -30.0	 30.0;
	23	 24	 0.00068	 0.02772	 0.0	 1057	 1057	 1057	 1.0313	 0.0	 1	 -30.0	 30.0;
	23	 25	 0.00075	 0.02715	 0.0	 1079	 1079	 1079	 1.028	 0.0	 1	 -30.0	 30.0;
	26	 27	 0.0007	 0.02673	 0.0	 1096	 1096	 1096	 1.0224	 0.0	 1	 -30.0	 30.0;
	26	 28	 0.00068	 0.02767	 0.0	 1059	 1059	 1059	 1.0237	 0.0	 1	 -30.0	 30.0;
	29	 30	 0.0007	 0.04677	 0.0	 627	 627	 627	 0.9796	 0.0	 1	 -30.0	 30.0;
	29	 31	 0.0007	 0.04677	 0.0	 627	 627	 627	 0.9796	 0.0	 1	 -30.0	 30.0;
	29	 32	 0.0007	 0.04677	 0.0	 627	 627	 627	 0.9796	 0.0	 1	 -30.0	 30.0;
	29	 33	 0.0007	 0.04677	 0.0	 627	 627	 627	 0.9796	 0.0	 1	 -30.0	 30.0;
	29	 34	 0.0007	 0.04677	 0.0	 627	 627	 627	 0.9796	 0.0	 1	 -30.0	 30.0;
	29	 35	 0.0007	 0.04677	 0.0	 627	 627	 627	 1.0386	 0.0	 1	 -30.0	 30.0;
	36	 37	 0.00039	 0.01976	 0.0	 1484	 1484	 1484	 1.0163	 0.0	 1	 -30.0	 30.0;
	36	 38	 0.00039	 0.01966	 0.0	 1491	 1491	 1491	 1.0163	 0.0	 1	 -30.0	 30.0;
	36	 39	 0.00039	 0.02009	 0.0	 1459	 1459	 1459	 1.0166	 0.0	 1	 -30.0	 30.0;
	40	 41	 0.00045	 0.01915	 0.0	 1477	 1477	 1477	 1.0211	 0.0	 1	 -30.0	 30.0;
	40	 42	 0.00045	 0.01931	 0.0	 1483	 1483	 1483	 1.0213	 0.0	 1	 -30.0	 30.0;
	40	 43	 0.00043	 0.01911	 0.0	 1508	 1508	 1508	 1.022	 0.0	 1	 -30.0	 30.0;
	44	 45	 0.0002	 0.02043	 0.0	 1435	 1435	 1435	 1.0319	 0.0	 1	 -30.0	 30.0;
	44	 46	 0.00021	 0.02056	 0.0	 1426	 1426	 1426	 1.0305	 0.0	 1	 -30.0	 30.0;
	47	 48	 0.00073	 0.02523	 0.0	 1162	 1162	 1162	 1.0302	 0.0	 1	 -30.0	 30.0;
	47	 49	 0.0011	 0.0277	 0.0	 1058	 1058	 1058	 1.0221	 0.0	 1	 -30.0	 30.0;
	50	 51	 0.00091	 0.02577	 0.0	 1137	 1137	 1137	 1.0205	 0.0	 1	 -30.0	 30.0;
	50	 52	 0.00073	 0.02702	 0.0	 1085	 1085	 1085	 1.0263	 0.0	 1	 -30.0	 30.0;
	53	 54	 0.00073	 0.02523	 0.0	 1162	 1162	 1162	 1.0175	 0.0	 1	 -30.0	 30.0;
	53	 55	 0.00073	 0.02532	 0.0	 1157	 1157	 1157	 1.0175	 0.0	 1	 -30.0	 30.0;
	56	 57	 0.00059	 0.028	 0.0	 1047	 1047	 1047	 1.05	 0.0	 1	 -30.0	 30.0;
	58	 59	 0.0003	 0.02778	 0.0	 1055	 1055	 1055	 1.0747	 0.0	 1	 -30.0	 30.0;
	60	 61	 0.00062	 0.02754	 0.0	 1036	 1036	 1036	 1.0659	 0.0	 1	 -30.0	 30.0;
	56	 62	 0.00056	 0.02818	 0.0	 1040	 1040	 1040	 1.0528	 0.0	 1	 -30.0	 30.0;
	63	 64	 0.004	 0.09778	 0.0	 299	 299	 299	 0.0	 0.0	 1	 -30.0	 30.0;
...